130
d10a1.out	Energy:   -7830.6415414
C          0.80009       -6.68674        0.28426
S          2.51551       -6.66211        0.06903
C          2.51550       -4.95571        0.26849
C          3.45177       -3.88736        0.27309
C          2.76358       -2.69755        0.49288
C          1.28130       -2.94949        0.65133
C          1.24237       -4.45061        0.48466
C          0.26031       -5.45069        0.49084
C          0.47601       -2.24344       -0.44272
C          0.79064       -2.52932        2.03946
C          3.60062       -1.58997        0.50865
C          4.92892       -1.92709        0.30146
S          5.14070       -3.65159        0.08536
C          6.05776       -1.05195        0.24512
C          5.96531        0.32881        0.38780
C          7.06496        1.17561        0.32144
C          7.36624       -1.55648        0.03007
N          7.71087       -2.83090       -0.13064
S          9.30391       -2.92250       -0.34455
N          9.63406       -1.35010       -0.24369
C          8.50371       -0.68118       -0.03690
C          8.36349        0.72331        0.10688
C          9.49556        1.59079        0.02873
S         11.10075        0.93878       -0.22327
C         11.75966        2.52552       -0.18978
C         13.02226        3.15685       -0.29928
C         12.84752        4.53634       -0.17588
C         11.39204        4.88437        0.02514
C         10.78236        3.50312        0.00418
C          9.50787        2.97472        0.12766
C         10.86152        5.74424       -1.12533
C         11.16343        5.57838        1.37025
C         14.03661        5.24065       -0.26358
C         15.13239        4.41058       -0.45465
S         14.66930        2.72368       -0.52957
C         16.50170        4.79573       -0.57694
C         16.93266        6.11734       -0.49923
C         18.26539        6.49055       -0.60865
C         17.52339        3.83290       -0.78239
N         17.36529        2.51743       -0.89259
S         18.80469        1.83180       -1.11686
N         19.69848        3.17070       -1.08419
C         18.90298        4.21920       -0.89536
C         19.29870        5.57886       -0.80672
C         20.67047        5.96031       -0.91342
S         21.91673        4.74996       -1.12903
C         23.11807        5.97844       -1.14482
C         24.52372        6.09049       -1.26647
C         24.87647        7.43939       -1.19503
C         23.65585        8.31100       -1.01832
C         22.57555        7.25595       -0.99478
C         21.19682        7.24369       -0.86417
C         23.47641        9.26345       -2.20361
C         23.70864        9.08968        0.29833
C         26.24174        7.64549       -1.30384
C         26.94674        6.46015       -1.45996
S         25.88762        5.06583       -1.46942
C         28.35803        6.29891       -1.60393
C         29.25527        7.36336       -1.60394
C         30.62708        7.20160       -1.74897
C         28.93785        5.01314       -1.75990
N         28.29479        3.84981       -1.78945
S         29.36437        2.66217       -1.98454
N         30.69499        3.56652       -2.04097
C         30.35708        4.84589       -1.90886
C         31.23579        5.95987       -1.90729
C         32.64591        5.78885       -2.05877
S         33.33112        4.18652       -2.22220
C         34.90560        4.86367       -2.33363
C         36.24385        4.42449       -2.48283
C         37.08548        5.53652       -2.49731
C         36.29496        6.81594       -2.35351
C         34.89544        6.25612       -2.25171
C         33.62019        6.77616       -2.09592
C         36.44869        7.70888       -3.58772
C         36.68598        7.57567       -1.08335
C         38.42306        5.19564       -2.63397
C         38.61418        3.82584       -2.72319
S         37.10342        2.94686       -2.63733
C         39.85328        3.11910       -2.86341
C         41.08766        3.74450       -2.94619
C         42.28784        3.03304       -3.07746
C         39.87133        1.70013       -2.92206
N         38.82078        0.88777       -2.86413
S         39.33466       -0.63433       -2.96787
N         40.90966       -0.34279       -3.09123
C         41.10776        0.97693       -3.05636
C         42.32828        1.66400       -3.13390
H          0.29045       -7.62867        0.23878
H         -0.79130       -5.28237        0.63874
H          0.82658       -2.55039       -1.42542
H          0.58831       -1.16545       -0.35364
H         -0.57816       -2.49508       -0.35381
H          1.36520       -3.03665        2.81116
H         -0.25910       -2.78665        2.15983
H          0.90604       -1.45564        2.16813
H          3.26671       -0.58028        0.66328
H          4.99643        0.77239        0.55544
H          6.89372        2.23371        0.44207
H          8.62112        3.56175        0.28189
H         11.02157        5.24025       -2.07573
H         11.37718        6.70140       -1.14686
H          9.79608        5.92200       -0.99993
H         11.53825        4.95850        2.18146
H         10.10155        5.75294        1.52658
H         11.68307        6.53340        1.39232
H         14.11331        6.31012       -0.19290
H         16.20288        6.89584       -0.34343
H         18.50262        7.53971       -0.53286
H         20.59252        8.12334       -0.73888
H         23.43970        8.70221       -3.13431
H         24.30700        9.96357       -2.25091
H         22.55049        9.82357       -2.09736
H         23.83400        8.40627        1.13480
H         22.78699        9.64901        0.43993
H         24.54374        9.78599        0.28869
H         26.71333        8.61055       -1.27212
H         28.87565        8.36610       -1.48662
H         31.24310        8.08689       -1.73643
H         33.39908        7.82448       -2.01305
H         36.17692        7.15889       -4.48578
H         37.47877        8.04415       -3.68223
H         35.80253        8.57940       -3.50313
H         36.58214        6.93157       -0.21317
H         36.04392        8.44362       -0.95342
H         37.71875        7.90977       -1.14882
H         39.22914        5.90570       -2.66543
H         41.13644        4.82129       -2.90844
H         43.20946        3.59347       -3.13502
H         43.25049        1.11620       -3.23394
