130
d10a2.out	Energy:  -15847.7369828
C          0.66304       -7.35422       -1.13056
S          2.38765       -7.40583       -1.23776
C          2.45398       -5.70960       -0.97313
C          3.43657       -4.68983       -0.86846
C          2.79263       -3.47661       -0.63917
C          1.29289       -3.66149       -0.58186
C          1.19458       -5.15153       -0.81217
C          0.16914       -6.10250       -0.90362
C          0.59127       -2.87735       -1.69406
C          0.73462       -3.27097        0.78924
C          3.67905       -2.41538       -0.52264
C          5.00237       -2.80901       -0.66167
S          5.14284       -4.53112       -0.94252
C          6.16870       -1.98434       -0.59972
C          6.11324       -0.61316       -0.37858
C          7.24288        0.19319       -0.31944
C          8.53550       -0.29502       -0.47596
C          8.64616       -1.69633       -0.70386
C          7.47197       -2.53427       -0.76516
N          7.72967       -3.81497       -0.98316
Se         9.46078       -4.04843       -1.12474
N          9.78757       -2.34501       -0.87551
C          9.69247        0.54092       -0.41710
S         11.29851       -0.12330       -0.62553
C         11.98405        1.44023       -0.42601
C         13.26045        2.05125       -0.41773
C         13.10124        3.42121       -0.19500
C         11.64360        3.78214       -0.03902
C         11.01317        2.42082       -0.20854
C          9.72567        1.91323       -0.20377
C         11.18800        4.74921       -1.13492
C         11.35760        4.36198        1.34878
C         14.30230        4.10707       -0.17376
C         15.39641        3.27507       -0.37902
S         14.91144        1.60775       -0.60044
C         16.77051        3.66052       -0.41940
C         17.18074        4.98042       -0.26001
C         18.51100        5.37192       -0.29623
C         19.56193        4.48215       -0.49529
C         19.19500        3.11681       -0.66606
C         17.80946        2.70891       -0.62835
N         17.61973        1.40999       -0.80158
Se        19.16775        0.61791       -1.02328
N         20.04912        2.12524       -0.86758
C         20.92613        4.90266       -0.52720
S         22.22631        3.76071       -0.78997
C         23.38064        5.03070       -0.67931
C         24.78276        5.20904       -0.75112
C         25.07435        6.56306       -0.56603
C         23.81491        7.36755       -0.35430
C         22.78127        6.27168       -0.44933
C         21.40271        6.19782       -0.36442
C         23.62684        8.41128       -1.45840
C         23.80045        8.02977        1.02603
C         26.42917        6.83621       -0.62222
C         27.19398        5.69884       -0.85085
S         26.19888        4.26577       -0.99647
C         28.61534        5.62819       -0.96511
C         29.43494        6.74718       -0.85645
C         30.81766        6.68955       -0.96393
C         31.51438        5.50738       -1.19045
C         30.71969        4.33169       -1.31180
C         29.28135        4.39143       -1.19982
N         28.67563        3.22167       -1.33327
Se        29.87253        1.97141       -1.60807
N         31.19766        3.11607       -1.52994
C         32.93817        5.45598       -1.29567
S         33.76046        3.93852       -1.58231
C         35.27594        4.74538       -1.55850
C         36.64818        4.42938       -1.69497
C         37.39803        5.59907       -1.56343
C         36.50136        6.79174       -1.32328
C         35.14858        6.11809       -1.34019
C         33.83025        6.51642       -1.19272
C         36.62688        7.82097       -2.44970
C         36.78407        7.43930        0.03494
C         38.76079        5.37675       -1.68474
C         39.06481        4.04129       -1.90958
S         37.62665        3.04709       -1.96995
C         40.36266        3.45813       -2.08317
C         41.53374        4.19629       -2.04296
C         42.79899        3.61666       -2.21522
C         42.96303        2.27610       -2.43561
C         41.81230        1.46897       -2.48728
C         40.50483        2.05644       -2.31101
N         39.50437        1.19283       -2.38126
Se        40.14581       -0.41259       -2.67286
N         41.80025        0.15523       -2.69180
H          0.11411       -8.26797       -1.24386
H         -0.88065       -5.88988       -0.80953
H         -0.47590       -3.08615       -1.68389
H          0.74157       -1.80984       -1.55154
H          0.99302       -3.15952       -2.66455
H         -0.33094       -3.48336        0.83438
H          1.23622       -3.83289        1.57378
H          0.88894       -2.20945        0.96762
H          3.38280       -1.39787       -0.34469
H          5.15164       -0.14313       -0.24557
H          7.09886        1.24746       -0.14368
H          8.84332        2.50750       -0.05284
H         10.11992        4.93483       -1.05076
H         11.71702        5.69482       -1.04380
H         11.39272        4.32804       -2.11646
H         10.29191        4.54265        1.46714
H         11.68153        3.66731        2.12027
H         11.88964        5.30127        1.47946
H         14.38814        5.16630       -0.01587
H         16.43685        5.74467       -0.10118
H         18.72939        6.41943       -0.16315
H         20.76406        7.04418       -0.19128
H         22.67575        8.92302       -1.33250
H         24.42821        9.14525       -1.42054
H         23.63864        7.93189       -2.43448
H         22.85215        8.53629        1.18869
H         23.93384        7.28098        1.80335
H         24.60477        8.75762        1.10105
H         26.85193        7.81676       -0.50333
H         28.98464        7.71094       -0.67963
H         31.36895        7.61121       -0.86517
H         33.52150        7.53055       -1.01717
H         35.91361        8.62812       -2.30080
H         37.63082        8.23841       -2.46575
H         36.42824        7.35275       -3.41092
H         36.07443        8.24166        0.22220
H         36.69433        6.70185        0.82916
H         37.79073        7.85003        0.05221
H         39.50741        6.14647       -1.61422
H         41.48189        5.25996       -1.87289
H         43.66623        4.25902       -2.17022
H         43.93329        1.82662       -2.56864
