174
d10a5.out	Energy:   -8889.8845657
C         -1.10511       -3.07783        0.13039
S          0.54982       -3.38960        0.52709
C          0.98313       -1.83094       -0.05478
C          2.15102       -1.04160       -0.19495
C          1.79348        0.18152       -0.76338
C          0.30595        0.23963       -1.02875
C         -0.11374       -1.12249       -0.52763
C         -1.30892       -1.84440       -0.41802
C          0.01502        0.40105       -2.52303
C         -0.35771        1.36105       -0.22533
C          2.87245        1.02967       -0.94190
C          4.07068        0.46992       -0.51273
S          3.83476       -1.15252        0.12459
C          5.37263        1.03929       -0.53378
C          6.47718        0.30856       -0.05362
N          6.39333       -0.92565        0.43924
S          7.80975       -1.48812        0.93196
N          8.64666       -0.07932        0.49927
C          7.80687        0.85225       -0.03421
C          5.66810        2.34901       -1.01739
N          4.67145        3.11518       -1.49274
C          4.92452        4.30768       -1.97955
C          3.76532        5.10886       -2.47822
C          6.24833        4.79143       -2.03400
C          6.59539        6.11372       -2.63765
N          7.23523        4.07693       -1.54005
C          6.99744        2.87274       -1.00668
C          8.10974        2.13151       -0.47498
C          9.42347        2.70169       -0.42480
S         10.87871        1.69534       -0.38635
C         11.88131        3.09176       -0.37278
C         13.25179        3.40434       -0.35512
C         13.38744        4.79995       -0.37443
C         12.03464        5.47329       -0.39544
C         11.12737        4.26619       -0.39854
C          9.75951        4.04470       -0.42626
C         11.84559        6.31191       -1.66169
C         11.82175        6.32885        0.85611
C         14.70210        5.21345       -0.37418
C         15.60310        4.14870       -0.35510
S         14.77229        2.59801       -0.32789
C         17.01727        4.19390       -0.37542
C         17.76816        2.99915       -0.34984
N         17.22822        1.78710       -0.27855
S         18.33158        0.62078       -0.29583
N         19.63434        1.70278       -0.39840
C         19.20267        2.99582       -0.42780
C         17.78211        5.40035       -0.44087
N         17.14878        6.58429       -0.43906
C         17.83549        7.70433       -0.46638
C         17.06424        8.98483       -0.47185
C         19.24460        7.67903       -0.47520
C         20.07108        8.92368       -0.44675
N         19.88655        6.53153       -0.51123
C         19.20713        5.37909       -0.51495
C         19.95555        4.15084       -0.55231
C         21.37998        4.16535       -0.71093
S         22.40613        2.85828       -0.10707
C         23.81736        3.66795       -0.66688
C         25.20977        3.47141       -0.67518
C         25.80162        4.57108       -1.31295
C         24.75796        5.56454       -1.76743
C         23.50222        4.87782       -1.28755
C         22.14385        5.15237       -1.30848
C         24.76346        5.71954       -3.29036
C         24.94271        6.92228       -1.08561
C         27.17659        4.48546       -1.36450
C         27.66163        3.32468       -0.76242
S         26.37518        2.31787       -0.12802
C         29.00993        2.93182       -0.61703
C         30.10755        3.68088       -1.09344
N         30.02543        4.83557       -1.74614
S         31.46932        5.43172       -2.12047
N         32.31012        4.13988       -1.42100
C         31.45836        3.22842       -0.87074
C         29.33412        1.72363        0.05916
N         28.31094        0.98669        0.50722
C         28.53161       -0.15148        1.12672
C         27.34580       -0.91971        1.60651
C         29.85563       -0.60175        1.30623
C         30.16530       -1.90361        1.97195
N         30.87921        0.11835        0.89170
C         30.67045        1.28694        0.27706
C         31.78894        2.06894       -0.18102
C         33.13553        1.65568        0.08197
S         34.49801        2.22454       -0.89293
C         35.60065        1.31903        0.06407
C         36.98525        1.10014        0.14278
C         37.23648        0.22788        1.21338
C         35.94626       -0.17341        1.89261
C         34.94628        0.60388        1.06862
C         33.57297        0.79234        1.07347
C         35.92762        0.26843        3.35780
C         35.70324       -1.68064        1.77950
C         38.57769       -0.03418        1.38673
C         39.38206        0.62896        0.45747
S         38.42329        1.59416       -0.65923
C         40.79023        0.61079        0.33990
C         41.42066        1.35240       -0.68684
N         40.77635        2.08600       -1.58291
S         41.77189        2.81045       -2.62163
N         43.17673        2.15729       -1.90080
C         42.85215        1.36303       -0.83406
C         41.66036       -0.11775        1.21405
N         41.14987       -0.84381        2.22097
C         41.95723       -1.50601        3.02138
C         41.32866       -2.29462        4.12553
C         43.35701       -1.46831        2.83731
C         44.29456       -2.21259        3.73110
N         43.88593       -0.76495        1.85923
C         43.07662       -0.08124        1.03536
C         43.67570        0.66922       -0.00324
H         -1.83329       -3.83841        0.33116
H         -2.27631       -1.48709       -0.72298
H          0.48513       -0.40187       -3.08621
H          0.40762        1.35083       -2.87796
H         -1.05730        0.37272       -2.70300
H         -0.15078        1.23676        0.83515
H         -1.43487        1.34487       -0.37537
H          0.02863        2.32604       -0.54425
H          2.83902        2.01696       -1.35941
H          9.62105        0.07993        0.69737
H          2.84244        4.56404       -2.30170
H          3.86858        5.29897       -3.54585
H          3.71918        6.06959       -1.96769
H          6.24864        6.16395       -3.66863
H          7.67318        6.24792       -2.61565
H          6.11986        6.92204       -2.08288
H          9.00905        4.81068       -0.44340
H         11.99208        5.69617       -2.54615
H         12.56601        7.12605       -1.68092
H         10.84071        6.72681       -1.68819
H         11.95673        5.72640        1.75162
H         10.81570        6.74179        0.86135
H         12.53986        7.14501        0.87519
H         15.04884        6.22828       -0.39032
H         20.59479        1.42292       -0.51245
H         15.99985        8.77011       -0.49824
H         17.33154        9.58591       -1.33964
H         17.28878        9.56523        0.42217
H         19.82457        9.52423        0.42756
H         19.88170        9.52729       -1.33394
H         21.12316        8.65522       -0.41169
H         21.69656        6.02578       -1.74158
H         24.63082        4.75135       -3.76828
H         25.71063        6.14172       -3.61727
H         23.95570        6.37705       -3.60341
H         24.92994        6.80515       -0.00431
H         24.13927        7.59655       -1.37289
H         25.89429        7.35969       -1.37787
H         27.83753        5.20843       -1.80343
H         33.31110        4.12146       -1.31452
H         26.44351       -0.36132        1.37581
H         27.40795       -1.08323        2.68133
H         27.30264       -1.89312        1.11968
H         29.66983       -2.72317        1.45374
H         29.81410       -1.89667        3.00332
H         31.23881       -2.06926        1.95896
H         32.88681        0.34215        1.76420
H         36.09763        1.34032        3.43051
H         36.70990       -0.24549        3.91088
H         34.96498        0.03630        3.80729
H         35.71280       -1.98617        0.73574
H         34.73751       -1.93661        2.20884
H         36.48211       -2.22437        2.30852
H         39.01352       -0.66548        2.13704
H         44.11131        2.33658       -2.21914
H         40.25037       -2.16598        4.09726
H         41.70404       -1.96200        5.09226
H         41.56480       -3.35267        4.01843
H         44.07327       -3.27885        3.71227
H         44.19537       -1.86588        4.75894
H         45.31431       -2.05007        3.39439
H         44.74815        0.66913       -0.10126
