294
d10a12.out	Energy:   -9635.3008444
C         32.27827      -25.66450        8.72203
S         30.96720      -24.65690        8.21830
C         32.08217      -23.41750        7.80430
C         32.06008      -22.10017        7.27216
C         33.36349      -21.62904        7.18243
C         34.34478      -22.67008        7.67199
C         33.39578      -23.78353        8.05083
C         33.50165      -25.07814        8.57878
C         35.13167      -22.16979        8.88605
C         35.29485      -23.10729        6.55363
C         33.43454      -20.33716        6.66717
C         32.19328      -19.81593        6.35696
S         30.91070      -20.95954        6.71695
C         31.87156      -18.52877        5.79893
C         32.86214      -17.54637        5.64378
C         32.51545      -16.33977        5.08467
N         33.31157      -15.23058        4.87614
C         34.70976      -15.08361        5.19201
C         34.94141      -14.38743        6.54229
C         34.41786      -15.22804        7.70332
C         36.42935      -14.09720        6.71685
C         32.58181      -14.20088        4.33731
O         33.07482      -13.13087        4.04181
C         30.55975      -18.23100        5.40703
C         30.21969      -17.02441        4.83396
C         31.20280      -16.05999        4.63253
C         31.18810      -14.70807        4.12948
C         30.18534      -14.01062        3.50626
C         30.05268      -12.60064        3.22894
C         30.78982      -11.46900        3.56703
C         30.33802      -10.22322        3.18263
C         28.97718      -14.64682        2.88760
O         28.68326      -15.82020        2.78432
N         28.23517      -13.64007        2.32301
C         26.98452      -13.86988        1.64974
C         25.76802      -13.49277        2.50988
C         24.49278      -13.67815        1.69252
C         25.72638      -14.34040        3.77765
C         28.83774      -12.41587        2.52547
C         28.38614      -11.17976        2.13434
C         29.15097      -10.04753        2.45894
C         28.71347       -8.73769        2.05524
S         29.70389       -7.32500        2.37895
C         28.53975       -6.31229        1.62989
C         28.34848       -4.93759        1.33841
C         27.13090       -4.78191        0.68277
C         26.43729       -6.11173        0.50643
C         27.44410       -7.02905        1.15857
C         27.54593       -8.39399        1.39899
C         26.25113       -6.45167       -0.97487
C         25.09490       -6.14344        1.24222
C         26.85789       -3.45943        0.35531
C         27.85778       -2.59038        0.75203
S         29.16694       -3.44508        1.55025
C         27.91018       -1.16352        0.57590
C         26.81450       -0.48254        0.02095
C         26.90040        0.87643       -0.15103
N         25.93887        1.72815       -0.65376
C         24.62088        1.35651       -1.09484
C         23.66317        1.07156        0.07301
C         23.49127        2.31579        0.93905
C         22.31847        0.60469       -0.47686
C         26.38305        3.02597       -0.63870
O         25.73655        3.94916       -1.09083
C         29.04034       -0.42485        0.95270
C         29.12395        0.94020        0.76858
C         28.05564        1.62072        0.19026
C         27.77610        3.00847       -0.08601
C         28.57144        4.11966        0.03080
C         28.21884        5.51607        0.00011
C         27.00947        6.20337        0.03233
C         27.00692        7.58081        0.00469
C         30.06701        4.09722        0.10171
O         30.82519        3.14928        0.07115
N         30.49375        5.40336        0.10120
C         31.89105        5.75297        0.14903
C         32.43548        5.97835        1.57262
C         31.88449        7.25060        2.21188
C         32.15264        4.77083        2.46282
C         29.41935        6.26748        0.02850
C         29.42140        7.64086       -0.02957
C         28.19587        8.32270       -0.06333
C         28.16112        9.75601       -0.17487
S         29.64907       10.68285       -0.30119
C         28.75481       12.14021       -0.44136
C         28.99005       13.52688       -0.61907
C         27.76681       14.18802       -0.67418
C         26.62074       13.21688       -0.52277
C         27.38197       11.92037       -0.38440
C         27.05221       10.57880       -0.23385
C         25.72894       13.20850       -1.76731
C         25.79630       13.51761        0.73195
C         27.89788       15.55851       -0.86406
C         29.21564       15.96403       -0.95934
S         30.31451       14.60121       -0.80454
C         29.72044       17.29358       -1.17341
C         31.09475       17.51263       -1.35265
C         31.53764       18.79273       -1.58297
N         32.83382       19.23154       -1.75891
C         34.01520       18.41009       -1.72571
C         34.40935       17.99221       -0.30055
C         35.60960       17.05225       -0.36341
C         34.72534       19.22002        0.54824
C         32.87015       20.59396       -1.92074
O         33.89499       21.20967       -2.13428
C         28.85083       18.39417       -1.20676
C         29.30035       19.67429       -1.44980
C         30.65601       19.89726       -1.66981
C         31.45297       21.07977       -1.88206
C         31.06677       22.38061       -2.08027
C         31.82719       23.60384       -1.99529
C         33.11858       23.91766       -1.58109
C         33.51448       25.23823       -1.51509
C         29.69212       22.80205       -2.50606
O         28.71465       22.12683       -2.75793
N         29.71475       24.16579       -2.64864
C         28.59038       24.93291       -3.11664
C         28.77896       25.43941       -4.55470
C         28.93220       24.26632       -5.51801
C         27.58901       26.31134       -4.94431
C         30.95493       24.67064       -2.32023
C         31.34059       25.98570       -2.25172
C         32.64848       26.29087       -1.84614
C         33.06382       27.66602       -1.76924
S         31.94903       28.93532       -2.25397
C         33.11348       30.12901       -1.86926
C         33.22552       31.53990       -1.88403
C         34.48548       31.89958       -1.41726
C         35.29416       30.67204       -1.06108
C         34.30021       29.58171       -1.39361
C         34.26827       28.19108       -1.34007
C         35.65881       30.65730        0.42580
C         36.55105       30.56214       -1.92835
C         34.67457       33.27798       -1.39405
C         33.56903       33.97859       -1.84094
S         32.26650       32.89581       -2.30037
C         33.38630       35.40130       -1.95600
C         34.38649       36.29139       -1.53329
C         34.16493       37.64253       -1.65306
N         35.01360       38.68262       -1.32596
C         36.33076       38.58999       -0.74909
C         37.46756       38.51672       -1.78655
C         37.48168       37.18924       -2.54016
C         37.38747       39.68311       -2.76789
C         34.41139       39.89240       -1.56837
O         34.90472       40.95390       -1.24755
C         32.20381       35.92335       -2.49674
C         31.97709       37.27943       -2.59619
C         32.94917       38.17040       -2.15239
C         33.05938       39.60942       -2.15218
C         32.16170       40.57017       -2.53136
C         32.36532       41.97745       -2.81186
C         33.49750       42.77328       -2.93209
C         33.35454       44.10224       -3.29788
C         30.68663       40.35519       -2.68189
O         30.02176       39.35569       -2.49250
N         30.13003       41.56715       -2.99787
C         28.71136       41.72045       -3.20043
C         28.26337       41.26559       -4.59820
C         26.73996       41.29532       -4.67915
C         28.87754       42.13533       -5.69133
C         31.10313       42.54069       -3.10985
C         30.96032       43.86676       -3.46462
C         32.10500       44.64705       -3.54730
H         32.05659      -26.64333        9.09843
H         34.42372      -25.56362        8.84329
H         34.45028      -21.85957        9.67505
H         35.75161      -21.32115        8.60683
H         35.77182      -22.96087        9.26902
H         34.72839      -23.45950        5.69454
H         35.93728      -23.91250        6.90181
H         35.91684      -22.27154        6.24203
H         34.35408      -19.80303        6.51226
H         33.87045      -17.73353        5.97314
H         35.15230      -14.46981        4.40085
H         35.18039      -16.06884        5.18160
H         34.39690      -13.43792        6.51865
H         34.96048      -16.16946        7.76846
H         33.35915      -15.44612        7.58341
H         34.55115      -14.69511        8.64197
H         37.00142      -15.02328        6.71192
H         36.60700      -13.59023        7.66205
H         36.79370      -13.46197        5.91330
H         29.79365      -18.97890        5.54878
H         29.20389      -16.84743        4.52922
H         31.71736      -11.55993        4.10393
H         30.91955       -9.35068        3.44209
H         26.94942      -14.93834        1.41754
H         26.97633      -13.30282        0.71331
H         25.85623      -12.43917        2.79850
H         24.38381      -14.71855        1.39491
H         24.51406      -13.06458        0.79408
H         23.62205      -13.39625        2.27947
H         25.68116      -15.39719        3.52471
H         24.85347      -14.08749        4.37517
H         26.61413      -14.17301        4.38373
H         27.46623      -11.08226        1.58271
H         26.79624       -9.10764        1.11096
H         27.20861       -6.42770       -1.49033
H         25.58467       -5.73180       -1.44386
H         25.82339       -7.44586       -1.08005
H         25.23530       -5.90147        2.29331
H         24.65076       -7.13318        1.16862
H         24.41122       -5.41913        0.80587
H         25.96887       -3.14432       -0.15913
H         25.92173       -1.01481       -0.26121
H         24.69771        0.47912       -1.74494
H         24.24126        2.19919       -1.68012
H         24.09168        0.27425        0.69085
H         23.11087        3.14201        0.34258
H         24.44167        2.61867        1.37361
H         22.79307        2.12071        1.74998
H         21.87351        1.38154       -1.09455
H         21.63384        0.37937        0.33724
H         22.43640       -0.29086       -1.08345
H         29.87680       -0.94821        1.39229
H         30.01980        1.46544        1.04980
H         26.07544        5.67130        0.05226
H         26.05979        8.09426        0.01809
H         32.05287        6.64553       -0.46095
H         32.43074        4.91303       -0.30019
H         33.52107        6.08764        1.46784
H         30.80392        7.19150        2.32135
H         32.12868        8.12596        1.61389
H         32.31884        7.38497        3.19992
H         31.08563        4.68260        2.65928
H         32.66561        4.87665        3.41598
H         32.48771        3.85356        1.98549
H         30.34256        8.20146       -0.05401
H         26.04357       10.21419       -0.17621
H         26.32073       12.99342       -2.65427
H         25.25246       14.17770       -1.89290
H         24.95807       12.44792       -1.67005
H         26.43585       13.52305        1.61189
H         25.02729       12.76042        0.86449
H         25.31930       14.49052        0.64154
H         27.06667       16.23433       -0.94193
H         31.77983       16.67940       -1.31316
H         34.81980       19.00522       -2.16749
H         33.84651       17.52354       -2.34505
H         33.56599       17.46054        0.15398
H         36.45990       17.55545       -0.81840
H         35.37769       16.16699       -0.95156
H         35.89376       16.73389        0.63648
H         35.53162       19.79428        0.09739
H         35.02770       18.92168        1.54945
H         33.85422       19.86619        0.63407
H         27.79703       18.24229       -1.04047
H         28.59748       20.48723       -1.48774
H         33.81611       23.13775       -1.33034
H         34.52163       25.46101       -1.20161
H         28.42696       25.77692       -2.43815
H         27.72284       24.26825       -3.07396
H         29.69043       26.04596       -4.59506
H         28.05836       23.62041       -5.47116
H         29.80773       23.67135       -5.26722
H         29.04569       24.62557       -6.53819
H         26.66851       25.73295       -4.90777
H         27.71481       26.69266       -5.95456
H         27.49163       27.15837       -4.26858
H         30.65255       26.78190       -2.49090
H         35.08474       27.58211       -0.99822
H         34.76139       30.73701        1.03522
H         36.31400       31.49317        0.65912
H         36.16930       29.73071        0.67674
H         36.28417       30.57413       -2.98274
H         37.07484       29.63418       -1.71205
H         37.21847       31.39692       -1.72816
H         35.58205       33.75290       -1.06917
H         35.30739       35.91802       -1.11921
H         36.36733       37.72091       -0.08707
H         36.46575       39.49656       -0.15022
H         38.40197       38.60181       -1.21981
H         36.55790       37.05054       -3.09709
H         37.60724       36.35412       -1.85405
H         38.30984       37.17207       -3.24519
H         36.51279       39.58447       -3.40825
H         38.27139       39.70455       -3.40117
H         37.31578       40.62808       -2.23580
H         31.44115       35.23848       -2.83683
H         31.04317       37.63838       -2.99020
H         34.47510       42.37641       -2.72424
H         34.23282       44.72381       -3.38300
H         28.44160       42.76478       -3.03184
H         28.21112       41.09782       -2.45152
H         28.60432       40.23382       -4.73237
H         26.36977       42.30646       -4.52047
H         26.30231       40.64505       -3.92571
H         26.40719       40.95862       -5.65780
H         28.53423       43.16394       -5.59804
H         28.58495       41.76766       -6.67220
H         29.96372       42.12625       -5.63488
H         29.99237       44.29098       -3.68034
H         32.01633       45.68884       -3.81764
