154
d10a11.out	Energy:   -8145.0546611
C          1.53425       10.03848        1.06733
S          3.22798       10.38745        1.05413
C          3.57191        8.71007        0.90742
C          4.70781        7.86579        0.81103
C          4.27188        6.54523        0.71404
C          2.76220        6.47155        0.74300
C          2.42013        7.93741        0.87224
C          1.25285        8.70712        0.96450
C          2.26753        5.67243        1.95147
C          2.21019        5.88147       -0.55744
C          5.31759        5.63947        0.61664
C          6.55416        6.26882        0.63886
S          6.42072        8.01069        0.78215
C          7.82993        5.68419        0.56309
C          9.05447        6.35377        0.58436
N          9.21030        7.68541        0.68072
C         10.43811        8.13966        0.68604
C         10.61283        9.61775        0.79154
C         11.57025        7.26343        0.59487
C         12.96269        7.79952        0.60585
N         11.43426        5.96439        0.49899
C         10.17996        5.48336        0.49102
C          9.83029        4.13429        0.39676
S          8.09567        3.96960        0.42640
C         10.70275        3.04134        0.29185
S         12.43510        3.30821        0.25963
C         12.68797        1.60893        0.12769
C         13.76586        0.70568        0.02975
C         13.25924       -0.59802       -0.04745
C         11.75050       -0.59448       -0.00291
C         11.48764        0.88744        0.11213
C         10.36971        1.69378        0.20393
C         11.22683       -1.35153        1.22022
C         11.15404       -1.16808       -1.29093
C         14.24699       -1.55762       -0.14385
C         15.52213       -0.99956       -0.14299
S         15.48797        0.74845       -0.02056
C         16.74289       -1.68323       -0.22415
C         18.03168       -1.14154       -0.23359
N         18.32455        0.16759       -0.16569
C         19.59360        0.49273       -0.18812
C         19.92050        1.94677       -0.11123
C         20.62710       -0.49571       -0.28188
C         22.06723       -0.10553       -0.31031
N         20.35754       -1.77632       -0.34687
C         19.06062       -2.12593       -0.32358
C         18.57314       -3.43484       -0.38091
S         16.83132       -3.41970       -0.32736
C         19.30402       -4.62798       -0.46103
S         21.05583       -4.60470       -0.50888
C         21.07250       -6.32717       -0.58402
C         22.01227       -7.37590       -0.65261
C         21.32662       -8.59754       -0.68433
C         19.83418       -8.38153       -0.63423
C         19.78283       -6.87488       -0.57252
C         18.78864       -5.92025       -0.50415
C         19.22199       -9.01059        0.62017
C         19.14966       -8.91326       -1.89595
C         22.16743       -9.69005       -0.75139
C         23.50852       -9.31905       -0.77207
S         23.72308       -7.58050       -0.70648
C         24.61936      -10.17128       -0.83772
C         25.97109       -9.81620       -0.85990
N         26.44752       -8.56088       -0.81903
C         27.74962       -8.42004       -0.85182
C         28.28069       -7.02622       -0.80616
C         28.63232       -9.54699       -0.92888
C         30.11297       -9.36634       -0.97100
N         28.18287      -10.77676       -0.96705
C         26.84944      -10.93773       -0.93294
C         26.18308      -12.16544       -0.96704
S         24.46228      -11.90546       -0.90786
C         26.75588      -13.44375       -1.04080
S         28.49865      -13.62111       -1.08643
C         28.31498      -15.33152       -1.16815
C         29.13304      -16.47924       -1.24655
C         28.31905      -17.61513       -1.29258
C         26.85871      -17.23420       -1.23771
C         26.97410      -15.73039       -1.16097
C         26.09453      -14.66638       -1.08799
C         26.18115      -17.80432        0.01123
C         26.11740      -17.67265       -2.50316
C         29.04150      -18.79356       -1.37467
C         30.41005      -18.56544       -1.38901
S         30.81042      -16.86242       -1.29928
C         31.44977      -19.51309       -1.46422
C         32.81595      -19.23993       -1.45436
N         33.35500      -18.01292       -1.36564
C         34.66023      -17.93824       -1.36632
C         35.26404      -16.57788       -1.26279
C         35.48253      -19.11541       -1.46082
C         36.97157      -19.00073       -1.46229
N         34.98235      -20.31695       -1.54704
C         33.63020      -20.41919       -1.54497
C         32.88138      -21.56817       -1.62219
S         31.20024      -21.22494       -1.58462
H          0.84314       10.85346        1.15176
H          0.25200        8.31421        0.95697
H          2.66399        6.09666        2.87112
H          2.59515        4.63844        1.87485
H          1.18126        5.69497        1.99645
H          2.56554        6.45403       -1.41116
H          1.12307        5.90641       -0.54846
H          2.53767        4.85055       -0.66835
H          5.22259        4.57145        0.53260
H          9.63456       10.08706        0.84547
H         11.15064       10.00084       -0.07451
H         11.18506        9.87137        1.68280
H         13.11605        8.47963       -0.23083
H         13.66144        6.97129        0.53024
H         13.15197        8.34993        1.52632
H          9.34762        1.35904        0.21042
H         11.65564       -0.93833        2.13026
H         11.49724       -2.40252        1.15306
H         10.14413       -1.26879        1.27580
H         11.53112       -0.62487       -2.15436
H         10.07028       -1.08297       -1.27118
H         11.42374       -2.21641       -1.39320
H         14.09190       -2.61962       -0.21348
H         18.99671        2.51411       -0.04198
H         20.47228        2.26094       -0.99612
H         20.53821        2.15305        0.76169
H         22.33382        0.43485        0.59700
H         22.26943        0.54403       -1.16084
H         22.67569       -1.00211       -0.38802
H         17.73036       -6.11070       -0.48293
H         19.71354       -8.62694        1.51124
H         19.34197      -10.09088        0.59321
H         18.16221       -8.77455        0.67736
H         19.59038       -8.46163       -2.78171
H         18.08895       -8.67544       -1.87402
H         19.26802       -9.99225       -1.95876
H         21.86249      -10.72086       -0.78531
H         27.44771       -6.33177       -0.74293
H         28.86344       -6.81107       -1.70081
H         28.92948       -6.89322        0.05843
H         30.45968       -8.84730       -0.07865
H         30.39945       -8.77290       -1.83818
H         30.58740      -10.34208       -1.02865
H         25.02127      -14.73341       -1.06899
H         26.71413      -17.48900        0.90525
H         26.17791      -18.89088       -0.02816
H         25.15486      -17.45075        0.07396
H         26.60369      -17.26248       -3.38523
H         25.08947      -17.31930       -2.47538
H         26.11528      -18.75733       -2.57837
H         28.62751      -19.78511       -1.42276
H         34.46754      -15.84182       -1.19967
H         35.88289      -16.36666       -2.13374
H         35.89352      -16.50604       -0.37684
H         37.30565      -18.38875       -2.29878
H         37.40509      -19.99316       -1.54615
H         37.31778      -18.53252       -0.54202
H         33.22022      -22.58053       -1.69765
