114
d10a9.out	Energy:  -15105.2148697
C          1.19860       10.71695       -2.33501
S          2.91382       10.93280       -2.36721
C          3.12829        9.24787       -2.10928
C          4.19413        8.32031       -1.96759
C          3.66437        7.05032       -1.77387
C          2.15326        7.09451       -1.78030
C          1.92301        8.57093       -2.00622
C          0.81690        9.42231       -2.13701
C          1.57855        6.63913       -0.43634
C          1.57818        6.25763       -2.92603
C          4.64485        6.07443       -1.62620
C          5.92413        6.59204       -1.70628
S          5.91093        8.32836       -1.96984
C          7.15089        5.88871       -1.60175
C          8.42463        6.40431       -1.67996
C          9.46466        5.47990       -1.54307
C          9.08140        4.17221       -1.34777
Se         7.19964        4.02328       -1.32233
C          9.91693        3.04063       -1.17950
S         11.66534        3.20633       -1.20384
C         11.83466        1.51479       -0.95126
C         12.87322        0.56579       -0.80778
C         12.31184       -0.69508       -0.61860
C         10.80320       -0.61782       -0.63219
C         10.60690        0.86366       -0.85444
C          9.52717        1.72735       -0.98354
C         10.21150       -1.06394        0.70738
C         10.21531       -1.43739       -1.78387
C         13.26547       -1.69190       -0.46669
C         14.55991       -1.20623       -0.53753
S         14.59204        0.52983       -0.79992
C         15.75800       -1.95203       -0.42059
C         17.05595       -1.49662       -0.48621
C         18.04982       -2.46825       -0.33248
C         17.60283       -3.75570       -0.13531
Se        15.71663       -3.81682       -0.13483
C         18.36871       -4.93184        0.05249
S         20.12430       -4.88577        0.06066
C         20.17374       -6.58368        0.32811
C         21.13996       -7.60229        0.49963
C         20.48760       -8.81932        0.68627
C         18.98863       -8.63707        0.64063
C         18.90217       -7.14802        0.40464
C         17.88727       -6.21474        0.24879
C         18.33772       -9.02777        1.97002
C         18.36618       -9.42022       -0.51827
C         21.36039       -9.88407        0.86629
C         22.68863       -9.49241        0.81914
S         22.84962       -7.76783        0.54547
C         23.83808      -10.31178        0.96306
C         23.85742      -11.67370        1.18584
C         25.12292      -12.25292        1.28979
C         26.19047      -11.39104        1.15687
Se        25.59073       -9.62596        0.86495
C         27.56603      -11.72672        1.21928
S         28.05244      -13.39374        1.48441
C         29.70291      -12.92652        1.41923
C         30.97518      -13.53610        1.52006
C         31.95869      -12.56379        1.37164
C         31.33555      -11.20308        1.15678
C         29.86716      -11.56083        1.20563
C         28.65721      -10.88551        1.09293
C         31.72220      -10.62250       -0.20589
C         31.71033      -10.23624        2.28306
C         33.24584      -13.08556        1.45805
C         33.25198      -14.45001        1.67141
S         31.62699      -15.10548        1.76784
C         34.37863      -15.30893        1.80986
C         34.37077      -16.66504        2.02097
C         35.64145      -17.26531        2.11992
C         36.69036      -16.41154        1.99156
Se        36.14666      -14.65990        1.71613
H          0.57183       11.57639       -2.46694
H         -0.21099        9.11062       -2.08987
H          0.49701        6.75168       -0.43473
H          1.82392        5.59469       -0.25926
H          1.99269        7.23683        0.37258
H          0.49668        6.36490       -2.96129
H          1.99247        6.58529       -3.87688
H          1.82316        5.20802       -2.78200
H          4.46664        5.02282       -1.46612
H          8.59675        7.45645       -1.83696
H         10.50417        5.76075       -1.58584
H          8.48715        1.44474       -0.94148
H          9.13287       -0.92675        0.70386
H         10.43257       -2.11418        0.88200
H         10.63504       -0.47855        1.52044
H          9.13676       -1.30558       -1.82414
H         10.64174       -1.11610       -2.73153
H         10.43633       -2.49257       -1.64203
H         13.06073       -2.73914       -0.30876
H         17.27860       -0.45438       -0.64601
H         19.10194       -2.23720       -0.36395
H         16.82977       -6.42624        0.27248
H         17.27305       -8.80864        1.94332
H         18.47379      -10.09051        2.15510
H         18.78819       -8.47070        2.78841
H         17.30203       -9.20700       -0.58429
H         18.83701       -9.14069       -1.45806
H         18.50235      -10.48788       -0.36409
H         21.05852      -10.90283        1.02523
H         22.95413      -12.25223        1.27398
H         25.26911      -13.30652        1.46297
H         28.53928       -9.82675        0.92563
H         31.20611       -9.67969       -0.37027
H         32.79478      -10.44870       -0.24714
H         31.44975      -11.31269       -1.00122
H         31.19369       -9.28886        2.14958
H         31.43000      -10.65369        3.24758
H         32.78267      -10.05621        2.27934
H         34.15912      -12.51913        1.37276
H         33.45214      -17.22190        2.10361
H         35.76777      -18.32220        2.28499
H         37.73453      -16.66201        2.03505
