170
d10a4.out	Energy:   -8887.5785498
C          0.45463       -5.79964       -0.14159
S          2.18182       -5.84860       -0.19185
C          2.23389       -4.13445       -0.06779
C          3.20964       -3.10884       -0.01877
C          2.55165       -1.88168        0.08989
C          1.05173       -2.06948        0.11446
C          0.96539       -3.57380        0.00758
C         -0.05140       -4.53590       -0.03551
C          0.38760       -1.38453       -1.08296
C          0.44891       -1.56439        1.42780
C          3.42446       -0.80976        0.14546
C          4.75581       -1.20711        0.07847
S          4.92180       -2.94730       -0.05619
C          5.90490       -0.37974        0.10494
C          5.85748        1.02952        0.21650
N          4.75864        1.77749        0.31856
S          5.17771        3.32677        0.42264
N          6.77364        3.13705        0.34364
C          7.05819        1.84065        0.23150
C          7.20183       -0.93810        0.01517
N          7.31024       -2.27353       -0.08958
C          8.48540       -2.83772       -0.17832
C          8.53528       -4.32345       -0.29275
C          9.66685       -2.04077       -0.16457
C         11.02786       -2.64143       -0.26306
N          9.58179       -0.74033       -0.06311
C          8.38313       -0.14215        0.02889
C          8.35038        1.26967        0.13408
C          9.54566        2.02148        0.13171
S         11.09999        1.22419       -0.00260
C         11.89030        2.75672        0.05624
C         13.19421        3.27046        0.00878
C         13.13601        4.67337        0.09669
C         11.70745        5.14714        0.21935
C         10.98207        3.82347        0.17659
C          9.67010        3.40965        0.21972
C         11.31142        6.04071       -0.95862
C         11.47163        5.86948        1.54842
C         14.37574        5.26665        0.04384
C         15.40899        4.33403       -0.08351
S         14.81145        2.68688       -0.13187
C         16.79014        4.60078       -0.17817
C         17.34343        5.90532       -0.17264
N         16.66791        7.04818       -0.07068
S         17.70012        8.28324       -0.11319
N         19.06014        7.43419       -0.26365
C         18.76856        6.13524       -0.28751
C         17.72725        3.54282       -0.29451
N         17.26022        2.28475       -0.30126
C         18.08482        1.27385       -0.40379
C         17.50123       -0.09840       -0.40258
C         19.48582        1.49957       -0.50965
C         20.46238        0.37860       -0.62510
N         19.95897        2.71963       -0.50703
C         19.12843        3.76868       -0.40270
C         19.69398        5.06888       -0.40754
C         21.08723        5.24887       -0.52716
S         22.15952        3.86930       -0.66267
C         23.51561        4.93303       -0.75449
C         24.90941        4.85395       -0.87976
C         25.44215        6.15659       -0.89344
C         24.34726        7.18857       -0.76865
C         23.13904        6.28723       -0.68436
C         21.78117        6.46189       -0.55636
C         24.28609        8.09102       -2.00363
C         24.51012        8.02426        0.50358
C         26.81186        6.17608       -1.01288
C         27.35943        4.89243       -1.09086
S         26.13192        3.64358       -1.01479
C         28.72321        4.55462       -1.20900
C         29.76940        5.50772       -1.28044
N         29.63287        6.83208       -1.26146
S         31.08493        7.51911       -1.36825
N         31.96584        6.17408       -1.44344
C         31.15945        5.11525       -1.38871
C         29.13241        3.19818       -1.25910
N         28.18281        2.25101       -1.21072
C         28.50912        0.98463       -1.24754
C         27.40584       -0.01724       -1.19862
C         29.87693        0.59940       -1.33325
C         30.29663       -0.83100       -1.36790
N         30.81533        1.50885       -1.38561
C         30.49965        2.81349       -1.35617
C         31.55550        3.75612       -1.42325
C         32.89887        3.33043       -1.51528
S         33.29280        1.62307       -1.52544
C         34.96806        2.01193       -1.64259
C         36.20080        1.34254       -1.72067
C         37.23105        2.29240       -1.80878
C         36.67395        3.69630       -1.78793
C         35.19755        3.39706       -1.67699
C         34.03646        4.13489       -1.60355
C         36.99541        4.44428       -3.08433
C         37.17829        4.47961       -0.57329
C         38.48181        1.71846       -1.89271
C         38.43042        0.32562       -1.86683
S         36.79166       -0.27668       -1.73416
C         39.52384       -0.57216       -1.93758
C         40.87027       -0.15946       -2.06446
N         41.33107        1.08970       -2.13449
S         42.93384        1.04992       -2.27550
N         43.14130       -0.53904       -2.25665
C         41.94534       -1.13113       -2.13689
C         39.31206       -1.96963       -1.88461
N         38.04635       -2.40495       -1.75936
C         37.79582       -3.68440       -1.70457
C         36.37348       -4.10759       -1.55971
C         38.86767       -4.62997       -1.78036
C         38.60485       -6.09846       -1.72293
N         40.10564       -4.24311       -1.90102
C         40.38469       -2.91609       -1.95686
C         41.70467       -2.49863       -2.08409
H         -0.08700       -6.72324       -0.19451
H         -1.10465       -4.32399        0.00832
H          0.82037       -1.74804       -2.01231
H          0.53735       -0.30915       -1.02620
H         -0.67993       -1.59221       -1.09014
H          0.92369       -2.05617        2.27385
H         -0.61807       -1.77307        1.45623
H          0.60096       -0.49163        1.51821
H          3.15031        0.22513        0.23007
H          7.52276       -4.71605       -0.28277
H          9.09773       -4.74893        0.53701
H          9.02872       -4.61585       -1.21847
H         11.12902       -3.20081       -1.19193
H         11.19929       -3.32911        0.56382
H         11.76963       -1.84870       -0.23477
H          8.80758        4.04357        0.30751
H         11.48136        5.52143       -1.89912
H         11.90456        6.95194       -0.95134
H         10.25844        6.30301       -0.89042
H         11.75657        5.22968        2.38064
H         10.42040        6.12758        1.65111
H         12.06536        6.77947        1.58895
H         14.57752        6.32054        0.08908
H         16.42101       -0.02552       -0.31756
H         17.89305       -0.67581        0.43357
H         17.75894       -0.62128       -1.32240
H         20.24931       -0.22080       -1.50897
H         20.39701       -0.27178        0.24600
H         21.46602        0.78709       -0.69740
H         21.26610        7.40147       -0.48364
H         24.17593        7.49066       -2.90392
H         25.19933        8.67560       -2.08392
H         23.43797        8.76734       -1.92959
H         24.54680        7.37729        1.37721
H         23.67123        8.70760        0.61078
H         25.43167        8.59935        0.45664
H         27.43377        7.05108       -1.04549
H         26.45477        0.50324       -1.13579
H         27.52194       -0.66774       -0.33302
H         27.42060       -0.64027       -2.09177
H         29.85623       -1.33488       -2.22702
H         29.96244       -1.34576       -0.46829
H         31.37943       -0.88236       -1.43358
H         33.96446        5.20645       -1.61046
H         36.63202        3.88375       -3.94273
H         38.07034        4.57479       -3.18282
H         36.51905        5.42170       -3.07907
H         36.94599        3.94328        0.34403
H         36.70267        5.45668       -0.53591
H         38.25560        4.61248       -0.63628
H         39.41637        2.24246       -1.97076
H         35.74078       -3.22516       -1.53266
H         36.23955       -4.67768       -0.64130
H         36.07808       -4.74121       -2.39475
H         38.10929       -6.35898       -0.78892
H         39.54738       -6.63342       -1.79277
H         37.95652       -6.39991       -2.54435
H         42.50655       -3.21415       -2.13960
