122
d11a6.out	Energy:   -9266.0685989
C         19.28078        8.19133        5.01945
S         18.61553        6.75711        4.32195
C         17.03116        7.46995        4.35166
C         15.84364        6.90089        3.92766
S         15.61659        5.31233        3.26556
C         18.36243        9.15127        5.26143
C         17.03933        8.77121        4.88752
C         15.83311        9.50128        4.98826
C         15.83311       10.88487        5.56665
C         14.64729        8.94046        4.55017
C         13.37043        9.72009        4.64494
C         14.63828        7.62725        4.02158
C         13.54462        6.86176        3.55145
C         13.89640        5.60813        3.12113
C         13.02107        4.60888        2.63779
C         11.63466        4.67761        2.49658
N         10.72421        5.62850        2.70813
S          9.27821        5.01655        2.34693
N          9.71614        3.52892        1.90851
C         11.04107        3.44239        2.02579
C         11.97379        2.42893        1.80329
S         13.56362        3.02797        2.16860
C         11.73750        1.09360        1.41005
S         13.06824       -0.02241        1.19242
C         11.94678       -1.30573        0.86208
C         12.24901       -2.63050        0.62638
S         13.83043       -3.34009        0.54978
C         10.51606        0.49880        1.20561
C         10.60193       -0.87718        0.89740
C          9.56374       -1.81546        0.66904
C          8.13511       -1.36172        0.66616
C          9.86535       -3.14855        0.46731
C          8.76146       -4.14111        0.25928
C         11.21641       -3.57863        0.45420
C         11.74452       -4.87981        0.29536
C         13.11673       -4.92324        0.32540
C         13.94257       -6.06461        0.22797
C         13.58281       -7.41221        0.26441
N         12.42369       -8.06306        0.35716
S         12.74432       -9.64259        0.37036
N         14.35165       -9.59328        0.26099
C         14.71786       -8.31301        0.20768
C         15.94273       -7.65439        0.09911
S         15.66923       -5.93898        0.09146
C         17.24107       -8.20109       -0.00083
S         18.59773       -7.16834       -0.39832
C         19.66704       -8.53221       -0.32118
C         21.02443       -8.53411       -0.56416
S         21.99309       -7.18874       -1.07691
C         17.61399       -9.51041        0.17938
C         19.00045       -9.73059        0.01575
C         19.74620      -10.92926        0.14990
C         19.04855      -12.20484        0.51593
C         21.11385      -10.92100       -0.04510
C         21.90574      -12.18184        0.13064
C         21.77119       -9.72478       -0.42964
C         23.13035       -9.50987       -0.74992
C         23.40723       -8.21912       -1.13069
C         24.64692       -7.70716       -1.57113
C         25.88548       -8.34778       -1.62310
N         26.32348       -9.55490       -1.26683
S         27.89501       -9.63260       -1.61576
N         28.10742       -8.15890       -2.23314
C         26.93510       -7.52615       -2.19200
C         26.49708       -6.26118       -2.58705
S         24.80655       -6.10371       -2.22106
C         27.23078       -5.24476       -3.23680
S         26.44662       -3.77199       -3.76776
C         27.93912       -3.21670       -4.45990
C         28.14843       -2.04426       -5.15742
S         26.97482       -0.81723       -5.52439
C         28.56343       -5.27561       -3.56665
C         29.00025       -4.12868       -4.26654
C         30.28837       -3.82378       -4.77304
C         31.42485       -4.77657       -4.55664
C         30.49737       -2.65111       -5.47293
C         31.85892       -2.33796       -6.01542
C         29.42543       -1.74808       -5.68168
C         29.41376       -0.52052       -6.38202
C         28.18800        0.09509       -6.39506
C         27.87781        1.32035       -7.03336
C         28.73195        2.12946       -7.77962
N         30.01821        2.06252       -8.12520
S         30.35264        3.36086       -9.01801
N         28.91730        4.07669       -9.02333
C         28.07672        3.31666       -8.30724
C         26.75029        3.39471       -7.95897
S         26.30264        2.04376       -7.00360
H         20.33592        8.22831        5.20806
H         18.62296       10.10167        5.69053
H         16.80557       11.15035        5.96587
H         15.10043       10.96079        6.36894
H         15.56519       11.61536        4.80293
H         13.10412        9.88615        5.68917
H         12.55124        9.19932        4.16227
H         13.48456       10.69530        4.17356
H         12.51964        7.18263        3.52651
H          9.60774        1.06337        1.30840
H          8.06333       -0.28110        0.71734
H          7.60035       -1.78358        1.51746
H          7.63221       -1.69792       -0.23949
H          8.04494       -4.09011        1.07806
H          9.14427       -5.15353        0.19929
H          8.22463       -3.92193       -0.66397
H         11.17041       -5.77867        0.16567
H         16.88499      -10.25915        0.42897
H         17.97101      -12.09016        0.47931
H         19.32650      -12.51279        1.52442
H         19.33414      -13.00429       -0.16576
H         21.67483      -12.89023       -0.66555
H         21.65913      -12.65639        1.07896
H         22.97163      -11.98330        0.11300
H         23.90342      -10.25593       -0.73737
H         29.17189       -6.12208       -3.30679
H         31.12117       -5.62898       -3.95984
H         32.24764       -4.27522       -4.04789
H         31.80141       -5.14095       -5.51235
H         32.18847       -3.12672       -6.69114
H         32.58415       -2.27443       -5.20436
H         31.86575       -1.39796       -6.55514
H         30.25528       -0.07370       -6.87851
H         26.03083        4.14776       -8.20306
