118
d11a8.out	Energy:   -7240.6039736
C         21.77426       -4.35997       -4.95264
S         20.71640       -5.66483       -4.54436
C         19.48357       -4.53036       -4.08476
C         18.21500       -4.81106       -3.60745
S         17.51320       -6.37662       -3.34207
C         21.23020       -3.14107       -4.75317
C         19.89653       -3.19561       -4.24747
C         19.01714       -2.13947       -3.92034
C         19.44830       -0.71365       -4.09178
C         17.75019       -2.41887       -3.43921
C         16.82190       -1.29473       -3.08952
C         17.33488       -3.76137       -3.28218
C         16.09096       -4.26834       -2.82465
C         16.02282       -5.63134       -2.79933
C         14.92104       -6.44616       -2.41146
C         14.85093       -7.81832       -2.37345
C         13.60521       -8.30051       -1.96271
C         12.69954       -7.30582       -1.67962
S         13.40950       -5.73334       -1.92021
C         11.34394       -7.44290       -1.26668
S         10.64689       -9.03958       -1.07960
C          9.11835       -8.33571       -0.65214
C          7.94385       -9.00264       -0.35876
S          7.69263      -10.71979       -0.32744
C         10.44198       -6.45303       -0.99823
C          9.15389       -6.92740       -0.64282
C          7.98658       -6.19647       -0.31894
C          8.01907       -4.69800       -0.28877
C          6.80900       -6.86375       -0.03493
C          5.57222       -6.08275        0.29315
C          6.77382       -8.27805       -0.05723
C          5.68512       -9.15469        0.18243
C          6.00450      -10.47829        0.07645
C          5.15258      -11.60699        0.24036
C          5.49730      -12.93705        0.19265
C          4.41490      -13.79910        0.38218
C          3.22082      -13.14488        0.57354
S          3.44436      -11.41793        0.52584
C          1.93489      -13.72059        0.77732
S          1.77741      -15.46258        0.88648
C          0.06071      -15.30721        1.08740
C         -0.85673      -16.32857        1.24597
S         -0.52863      -18.03156        1.31613
C          0.73103      -13.08646        0.89644
C         -0.36799      -13.96536        1.07313
C         -1.74360      -13.66557        1.21568
C         -2.20676      -12.23947        1.21481
C         -2.66447      -14.68872        1.34836
C         -4.12396      -14.36894        1.47512
C         -2.22848      -16.03468        1.37353
C         -2.98705      -17.22329        1.52450
C         -2.23700      -18.36477        1.51838
C         -2.68072      -19.71022        1.65781
C         -1.91540      -20.85010        1.72849
C         -2.66871      -22.01773        1.87360
C         -4.02438      -21.79304        1.91044
S         -4.37640      -20.09295        1.76715
C         -5.06967      -22.75075        2.04031
S         -4.67832      -24.44279        2.27434
C         -6.36778      -24.84037        2.31923
C         -6.92876      -26.09223        2.49081
S         -6.09292      -27.59641        2.72336
C         -6.41750      -22.53492        2.00286
C         -7.19437      -23.71125        2.15641
C         -8.60093      -23.86188        2.15788
C         -9.48778      -22.66616        1.98049
C         -9.16167      -25.11622        2.31622
C        -10.65261      -25.27248        2.30319
C         -8.32874      -26.24566        2.49293
C         -8.68711      -27.60467        2.68931
C         -7.62180      -28.44456        2.83124
C         -7.63890      -29.85526        3.04829
C         -6.57331      -30.70195        3.21040
C         -6.95683      -32.04099        3.41008
C         -8.30496      -32.20852        3.39851
S         -9.14251      -30.72972        3.14353
H         22.75414       -4.59085       -5.32244
H         21.76470       -2.23166       -4.95950
H         20.44503       -0.64504       -4.51265
H         19.44589       -0.19920       -3.13093
H         18.76025       -0.18517       -4.75091
H         17.28011       -0.64073       -2.34814
H         15.88399       -1.66144       -2.68822
H         16.60546       -0.69267       -3.97208
H         15.25529       -3.66327       -2.52122
H         15.68286       -8.44569       -2.64070
H         13.36083       -9.34447       -1.87558
H         10.71657       -5.41575       -1.06997
H          9.01432       -4.31629       -0.48649
H          7.69868       -4.33163        0.68605
H          7.33891       -4.28826       -1.03549
H          5.73098       -5.47910        1.18756
H          4.72294       -6.73460        0.46704
H          5.32432       -5.40440       -0.52376
H          4.68579       -8.84114        0.42640
H          6.50794      -13.26466        0.02443
H          4.48958      -14.87214        0.37748
H          0.65827      -12.01473        0.84500
H         -1.37044      -11.54991        1.24184
H         -2.83990      -12.04538        2.07928
H         -2.79383      -12.03116        0.31986
H         -4.32210      -13.86983        2.42412
H         -4.73255      -15.26501        1.42801
H         -4.43735      -13.69878        0.67614
H         -4.05510      -17.25924        1.64499
H         -0.84116      -20.82697        1.67818
H         -2.24576      -23.00395        1.94782
H         -6.81920      -21.54735        1.86218
H         -8.91566      -21.74576        1.95204
H        -10.20507      -22.59997        2.79758
H        -10.05177      -22.74797        1.05110
H        -11.07104      -24.84500        1.39272
H        -11.09633      -24.74743        3.14925
H        -10.94523      -26.31495        2.35720
H         -9.69688      -27.97214        2.73318
H         -5.55309      -30.36227        3.18627
H         -6.25884      -32.84567        3.55668
H         -8.86712      -33.11218        3.52485
