158
d1a9.out	Energy:  -16181.3045844
C         12.27167      -15.58733       -0.33447
S         11.55748      -14.36097       -1.32804
C         12.32739      -13.15398       -0.38477
C         12.46787      -11.74407       -0.38474
S         11.90658      -10.39075       -1.27412
C         13.05026      -15.09504        0.66753
C         13.08220      -13.68665        0.66431
C         13.73341      -12.59136        1.38096
C         14.55004      -12.60501        2.45239
C         14.87416      -13.75212        3.28259
C         16.17523      -13.92418        3.75480
C         16.50621      -15.01002        4.54831
C         17.91226      -15.21846        5.02418
C         15.51176      -15.91798        4.89261
C         14.20077      -15.75051        4.46567
C         13.13619      -16.71895        4.88548
C         13.89144      -14.66492        3.66169
C         13.33071      -11.38622        0.65485
C         13.53413      -10.00771        0.73158
C         12.84006       -9.31582       -0.24091
C         12.81782       -7.91598       -0.46506
C         12.10482       -7.23440       -1.42387
C         12.26093       -5.84481       -1.42674
C         13.10565       -5.33582       -0.46792
Se        13.83012       -6.72245        0.58990
C         13.45794       -3.98057       -0.25161
S         12.87850       -2.71507       -1.32566
C         13.75592       -1.54732       -0.42552
C         13.94376       -0.14967       -0.42370
S         13.45019        1.21621       -1.33454
C         14.27752       -3.48291        0.74110
C         14.47525       -2.10531        0.64301
C         15.16752       -1.03043        1.35680
C         15.96146       -1.08033        2.44433
C         16.41832       -2.28695        3.11303
C         16.84511       -3.39622        2.38555
C         17.22305       -4.56653        3.02490
C         17.60284       -5.77055        2.21804
C         17.20180       -4.60946        4.41302
C         16.83055       -3.50115        5.16370
C         16.82105       -3.55512        6.66180
C         16.44639       -2.34291        4.50567
C         14.78034        0.18874        0.64854
C         15.02551        1.55926        0.72209
C         14.37892        2.26830       -0.27257
C         14.38729        3.66648       -0.49886
C         13.69750        4.35337       -1.47248
C         13.87069        5.73957       -1.47940
C         14.70870        6.24314       -0.51075
Se        15.40054        4.85254        0.56441
C         15.06807        7.59656       -0.29832
S         14.48961        8.85978       -1.37637
C         15.36834       10.02934       -0.48034
C         15.55568       11.42697       -0.48214
S         15.05458       12.79302       -1.38971
C         15.88947        8.09655        0.69203
C         16.08937        9.47334        0.58861
C         16.78560       10.54947        1.29636
C         17.58845       10.50540        2.37769
C         18.05424        9.30584        3.05199
C         18.46588        8.18594        2.33220
C         18.85410        7.02388        2.98067
C         19.22029        5.81028        2.18154
C         18.86005        7.00053        4.36933
C         18.50474        8.11987        5.11138
C         18.52824        8.09063        6.61006
C         18.10877        9.26899        4.44461
C         16.39502       11.76693        0.58740
C         16.63614       13.13778        0.66155
C         15.98315       13.84631       -0.32928
C         15.98695       15.24619       -0.54556
C         15.29379       15.94479       -1.50797
C         15.46553       17.33200       -1.49665
C         16.30494       17.82279       -0.52330
Se        17.00196       16.41881        0.53025
C         16.66716       19.17157       -0.28440
S         16.10121       20.46362       -1.33397
C         16.98289       21.60687       -0.40651
C         17.17977       23.00504       -0.37066
S         16.70237       24.40069       -1.24650
C         17.48711       19.64271        0.72057
C         17.69546       21.02040        0.65078
C         18.39563       22.07264        1.38912
C         19.20350       21.99632        2.46518
C         19.67911       20.78012        3.10018
C         20.07811       19.67940        2.34591
C         20.48410       18.50307        2.95857
C         20.83820       17.31124        2.12230
C         20.52098       18.44795        4.34461
C         20.17813       19.54967        5.12132
C         20.23550       19.46709        6.61690
C         19.76343       20.71090        4.49146
C         18.01215       23.30948        0.71288
C         18.26471       24.67753        0.82526
C         17.63080       25.41565       -0.15143
C         17.65900       26.82765       -0.33283
C         17.02321       27.55852       -1.30450
C         17.22923       28.95116       -1.24061
C         18.02935       29.36671       -0.22456
Se        18.63754       27.95784        0.81742
H         12.06400      -16.61392       -0.56269
H         13.58202      -15.72141        1.36033
H         15.02331      -11.67154        2.73354
H         16.93748      -13.21102        3.47401
H         18.50632      -14.31773        4.89212
H         18.38204      -16.02397        4.45935
H         17.92456      -15.49814        6.07589
H         15.76230      -16.76577        5.51502
H         13.51890      -17.73756        4.88534
H         12.27662      -16.66374        4.22174
H         12.80007      -16.48811        5.89672
H         12.87141      -14.50094        3.34746
H         14.15742       -9.50138        1.45189
H         11.46734       -7.75013       -2.12314
H         11.75467       -5.20252       -2.12854
H         14.68856       -4.12633        1.50174
H         16.27202       -0.14100        2.88595
H         16.89883       -3.33264        1.30902
H         16.70041       -6.25883        1.83899
H         18.15209       -6.49028        2.81969
H         18.20951       -5.48656        1.36083
H         17.48994       -5.52007        4.91943
H         17.37730       -4.41575        7.02466
H         15.79632       -3.63174        7.02612
H         17.25707       -2.65087        7.08200
H         16.13678       -1.47974        5.07797
H         15.63923        2.05112        1.46023
H         13.06300        3.84217       -2.17776
H         13.38214        6.38510       -2.19068
H         16.29884        7.45545        1.45549
H         17.90172       11.44814        2.81021
H         18.50140        8.23448        1.25420
H         19.87468        6.07618        1.35363
H         18.31745        5.35980        1.75950
H         19.71577        5.06649        2.80047
H         19.15766        6.09695        4.88282
H         19.04131        7.20448        6.97499
H         17.51050        8.08380        7.00066
H         19.02918        8.97371        7.00269
H         17.81120       10.14041        5.01078
H         17.25059       13.63073        1.39846
H         14.65744       15.44246       -2.21801
H         14.97393       17.98659       -2.19750
H         17.88974       18.98208        1.47106
H         19.51868       22.92646        2.92293
H         20.09243       19.75348        1.26894
H         21.47490       17.60023        1.28858
H         19.92882       16.86818        1.70695
H         21.34847       16.55418        2.71212
H         20.83419       17.53553        4.83259
H         21.08336       18.86584        6.93833
H         19.32773       18.99856        6.99872
H         20.31676       20.45743        7.05837
H         19.47585       21.56932        5.08204
H         18.87812       25.14141        1.58084
H         16.41125       27.09163       -2.05837
H         16.78404       29.63218       -1.94651
H         18.31216       30.37863        0.00134
