166
d2a7.out	Energy:  -11965.5974575
C         21.56280      -10.59517       -1.13726
S         22.04290       -9.01394       -1.64915
C         20.40760       -8.50501       -1.60617
C         19.67559       -7.30885       -1.79210
S         19.95221       -5.67444       -2.21774
C         20.21923      -10.72783       -0.95009
C         19.53157       -9.53278       -1.23041
C         18.17324       -8.99589       -1.17377
C         17.00655       -9.57993       -0.84001
C         16.78506      -10.99278       -0.58141
C         17.35393      -11.97587       -1.39375
C         17.12760      -13.31392       -1.14320
C         16.32954      -13.68736       -0.06803
C         16.08220      -15.14490        0.18826
F         17.16864      -15.90097       -0.04475
F         15.70382      -15.40176        1.44901
F         15.10905      -15.64189       -0.60318
C         15.73088      -12.72251        0.73241
C         15.95068      -11.38607        0.46703
C         18.32397       -7.58028       -1.51669
C         17.51489       -6.46305       -1.65718
C         18.23938       -5.33509       -2.02805
C         17.75178       -4.02154       -2.22492
C         16.39339       -3.65125       -2.08986
N         15.36888       -4.45859       -1.80623
S         14.01094       -3.59872       -1.74791
N         14.64018       -2.15635       -2.07347
C         15.95456       -2.28106       -2.24789
C         18.61477       -2.95376       -2.55838
N         19.92656       -3.07989       -2.76339
S         20.55512       -1.64350       -3.11066
N         19.20090       -0.78124       -3.01887
C         18.17958       -1.58327       -2.70767
C         16.82645       -1.20613       -2.53198
C         16.36965        0.12721       -2.59701
S         14.66985        0.52030       -2.41414
C         15.03997        2.19231       -2.56020
C         14.38380        3.42534       -2.45383
S         12.79822        4.02934       -2.19864
C         17.16098        1.26062       -2.76958
C         16.42339        2.42805       -2.76120
C         16.66178        3.87055       -2.79746
C         17.81752        4.54248       -2.95382
C         19.10339        3.92806       -3.25466
C         19.21750        2.95184       -4.24642
C         20.42577        2.33296       -4.49090
C         21.54364        2.69205       -3.74686
C         22.83133        1.95685       -3.97100
F         22.84069        0.75995       -3.33922
F         23.05710        1.68409       -5.26680
F         23.90851        2.61813       -3.52672
C         21.45866        3.69197       -2.78649
C         20.24750        4.31411       -2.55559
C         15.34659        4.46011       -2.56133
C         14.80048        5.71775       -2.40782
C         13.42193        5.67206       -2.18950
C         12.55964        6.75694       -1.93679
C         11.16426        6.57498       -1.78418
N         10.54170        5.40436       -1.90852
S          8.96573        5.60748       -1.66049
N          8.99127        7.19115       -1.37278
C         10.24375        7.64200       -1.46518
C         12.99552        8.09483       -1.76759
N         14.24643        8.54501       -1.86409
S         14.27216       10.12524       -1.55282
N         12.70031       10.32550       -1.27733
C         12.07812        9.15762       -1.42046
C         10.68634        8.97132       -1.25261
C          9.83749       10.02597       -0.86299
S         10.48160       11.59637       -0.41655
C          8.89678       12.13703       -0.03124
C          8.26614       13.30171        0.42140
S          8.68791       14.87792        0.95381
C          8.45045        9.96482       -0.73387
C          7.91148       11.14052       -0.25301
C          6.59464       11.69418        0.06195
C          5.38185       11.11791       -0.02830
C          5.14900        9.71723       -0.35668
C          5.86904        8.70609        0.28254
C          5.68427        7.38338       -0.06194
C          4.76536        7.05412       -1.05167
C          4.63215        5.61766       -1.46149
F          4.63889        4.77651       -0.41287
F          3.51303        5.35866       -2.15050
F          5.65802        5.22400       -2.25007
C          4.00981        8.04295       -1.66818
C          4.19311        9.36418       -1.30915
C          6.86835       13.06942        0.47024
C          6.15989       14.16196        0.92547
C          6.99275       15.23782        1.24147
C          6.61070       16.48951        1.76289
C          7.56917       17.46907        2.11612
N          8.88464       17.31908        1.97185
S          9.63599       18.63533        2.50988
N          8.33182       19.46478        2.95696
C          7.23514       18.74789        2.70034
C          5.26848       16.87345        2.00584
N          4.17500       16.15223        1.75881
S          2.87098       16.99066        2.19477
N          3.61917       18.31240        2.72238
C          4.93415       18.15866        2.57939
C          5.89401       19.12723        2.95119
C          5.52178       20.35424        3.53987
S          3.83867       20.73918        3.85271
C          4.30978       22.24114        4.53899
C          3.70531       23.38873        5.07609
S          2.13282       23.97794        5.42172
C          6.38342       21.36579        3.95680
C          5.71347       22.42401        4.54112
C          6.02344       23.73378        5.11587
C          7.21964       24.32082        5.30507
C          8.50664       23.67809        5.07364
C          8.75895       22.39274        5.55712
C          9.95904       21.76435        5.29738
C         10.93077       22.42230        4.55254
C         12.20019       21.69917        4.21425
F         12.03741       20.86646        3.16014
F         13.20976       22.51724        3.88711
F         12.64420       20.92720        5.22016
C         10.71345       23.71719        4.09937
C          9.51321       24.34327        4.37343
C          4.71807       24.31524        5.41617
C          4.21292       25.48587        5.95315
C          2.82292       25.47456        6.02666
C          1.97631       26.50030        6.51415
C          0.57353       26.35347        6.52711
N         -0.08920       25.27807        6.10061
S         -1.66593       25.52684        6.29163
N         -1.60625       26.99731        6.92028
C         -0.32436       27.38241        7.01726
C          2.44043       27.73566        7.02024
N          3.71194       28.12889        7.12054
S          3.75650       29.60631        7.75373
N          2.18575       29.84206        7.93979
C          1.52562       28.75715        7.50884
C          0.14603       28.59135        7.51153
H         22.31892      -11.34305       -1.00318
H         19.76336      -11.64062       -0.61276
H         16.13821       -8.94140       -0.73678
H         17.95244      -11.67998       -2.24112
H         17.56808      -14.07174       -1.77333
H         15.10018      -13.02136        1.55553
H         15.48956      -10.63374        1.08900
H         16.45304       -6.42042       -1.50169
H         18.22602        1.17675       -2.87051
H         17.81184        5.61659       -2.82192
H         18.35052        2.68796       -4.83116
H         20.50697        1.57128       -5.25090
H         22.33610        3.97789       -2.22697
H         20.17660        5.08586       -1.80405
H         15.33023        6.65180       -2.43161
H          7.91412        9.07398       -0.99867
H          4.50487       11.73231        0.12865
H          6.57005        8.96647        1.05973
H          6.25055        6.60567        0.42675
H          3.28524        7.77663       -2.42233
H          3.61304       10.13583       -1.79237
H          5.09479       14.22737        1.04775
H          7.44270       21.28173        3.80707
H          7.24357       25.35218        5.63203
H          8.00716       21.89318        6.14756
H         10.14606       20.76726        5.66516
H         11.48095       24.22737        3.53778
H          9.33877       25.34683        4.01588
H          4.78334       26.33322        6.28543
H         -0.51598       29.35655        7.87566
