146
d2a8.out	Energy:   -9197.5736505
C          9.51066      -13.36125        7.22577
S          8.57881      -11.90724        7.34632
C          9.88193      -11.01920        6.67962
C         10.15253       -9.68836        6.26730
S          9.38626       -8.15718        6.25815
C         10.75566      -13.17154        6.70848
C         10.99468      -11.81796        6.39964
C         12.03206      -10.98549        5.79140
C         13.26999      -11.28948        5.35619
C         13.97113      -12.54958        5.53092
C         14.76902      -13.05084        4.50009
C         15.45012      -14.24222        4.64846
C         15.35783      -14.93892        5.84657
C         16.10728      -16.22318        6.04636
F         16.51904      -16.78225        4.90009
F         17.21290      -16.05401        6.80072
F         15.37013      -17.15336        6.68006
C         14.60165      -14.43415        6.89851
C         13.91321      -13.24927        6.73837
C         11.43045       -9.65347        5.70456
C         11.79246       -8.37951        5.26502
C         10.79736       -7.44853        5.48719
C         10.81939       -6.06465        5.17437
C          9.86170       -5.10849        5.43146
C         10.21979       -3.83080        4.99934
C         11.45839       -3.78187        4.39923
S         12.19637       -5.36239        4.36868
C         12.14248       -2.66656        3.85251
S         11.43867       -1.05914        3.91082
C         12.81912       -0.42215        3.11865
C         13.32481        0.84100        2.73477
S         12.85413        2.48754        2.78102
C         13.37809       -2.67316        3.23686
C         13.76576       -1.40661        2.79825
C         14.91926       -0.76475        2.16467
C         16.06000       -1.30031        1.69162
C         16.35563       -2.72091        1.58685
C         15.40501       -3.62113        1.10067
C         15.68797       -4.96895        1.02267
C         16.93385       -5.43518        1.42829
C         17.19646       -6.91071        1.36542
F         16.95473       -7.42301        0.14398
F         18.45519       -7.24651        1.67488
F         16.40375       -7.60169        2.21242
C         17.90376       -4.55010        1.87973
C         17.61653       -3.20080        1.94428
C         14.59789        0.66153        2.17893
C         15.19042        1.86130        1.78920
C         14.38426        2.95262        2.05126
C         14.67526        4.32112        1.82369
C         13.89577        5.42253        2.10459
C         14.50405        6.63364        1.77633
C         15.76212        6.48706        1.23414
S         16.19970        4.80189        1.12671
C         16.66836        7.49220        0.81201
S         16.27854        9.19126        1.02213
C         17.79063        9.62435        0.34412
C         18.48616       10.80353       -0.00816
S         18.28077       12.49865        0.09459
C         17.91269        7.30775        0.24236
C         18.56762        8.51304       -0.01418
C         19.81602        8.98545       -0.61730
C         20.85335        8.28734       -1.11522
C         21.02826        6.84475       -1.03562
C         21.47701        6.13045       -2.14747
C         21.62548        4.75854       -2.09402
C         21.34653        4.08574       -0.91179
C         21.49735        2.59641       -0.81400
F         21.70848        2.00111       -1.99537
F         22.52801        2.23935       -0.02143
F         20.40826        2.00760       -0.28234
C         20.94468        4.78685        0.21985
C         20.78795        6.15593        0.15512
C         19.69929       10.44369       -0.60913
C         20.46231       11.54839       -0.98541
C         19.83895       12.74446       -0.67712
C         20.31384       14.06270       -0.90856
C         21.47109       14.46166       -1.54548
C         21.63044       15.84645       -1.59358
C         20.60152       16.53965       -0.99392
S         19.40671       15.44358       -0.35673
C         20.43736       17.94088       -0.84898
S         21.63287       19.05589       -1.48995
C         20.71652       20.38009       -0.90551
C         20.76351       21.79414       -0.94614
S         21.77934       23.03632       -1.54185
C         19.39870       18.59570       -0.21799
C         19.55556       19.98279       -0.22742
C         18.82642       21.17907        0.19967
C         17.66701       21.29653        0.87346
C         16.90966       20.21482        1.48321
C         17.54720       19.20767        2.21010
C         16.82028       18.18814        2.79118
C         15.43848       18.16405        2.64996
C         14.63537       17.07270        3.29518
F         15.33555       15.94454        3.48188
F         14.17899       17.43491        4.51320
F         13.54947       16.73516        2.58084
C         14.78389       19.17551        1.95699
C         15.51674       20.19693        1.38772
C         19.62471       22.29499       -0.30629
C         19.58190       23.69051       -0.29655
C         20.67328       24.25231       -0.92882
C         20.95409       25.63815       -1.11344
C         20.20863       26.71867       -0.70553
C         20.78592       27.95112       -1.05725
C         21.96070       27.81144       -1.72715
S         22.39081       26.16380       -1.94500
H          9.06784      -14.28117        7.55185
H         11.45118      -13.97496        6.54805
H         13.81276      -10.52512        4.81384
H         14.83855      -12.50655        3.57043
H         16.05238      -14.63274        3.84267
H         14.55707      -14.97243        7.83331
H         13.34794      -12.83957        7.56077
H         12.72724       -8.11908        4.80132
H          8.93343       -5.34014        5.92318
H          9.60069       -2.95892        5.11652
H         13.95595       -3.57438        3.14095
H         16.84521       -0.62689        1.37199
H         14.44883       -3.25138        0.76491
H         14.95040       -5.66389        0.65047
H         18.87464       -4.91716        2.17486
H         18.36716       -2.51008        2.29744
H         16.16379        1.96292        1.34332
H         12.91572        5.33863        2.53999
H         14.05040        7.59720        1.92744
H         18.29378        6.32675        0.02380
H         21.62989        8.83064       -1.63873
H         21.68689        6.65564       -3.06711
H         21.95377        4.20958       -2.96314
H         20.75327        4.25604        1.14018
H         20.49651        6.70679        1.03562
H         21.42549       11.49981       -1.45878
H         22.17663       13.76832       -1.96538
H         22.46991       16.34099       -2.04976
H         18.56982       18.06104        0.20953
H         17.23670       22.28534        0.97200
H         18.61768       19.24504        2.33835
H         17.31876       17.41006        3.34875
H         13.70854       19.15562        1.86654
H         15.01089       20.98104        0.84467
H         18.79752       24.27833        0.14305
H         19.28012       26.62866       -0.17244
H         20.34575       28.90361       -0.82195
H         22.60590       28.57675       -2.10970
