326
d3a12.out	Energy:  -11744.7554690
C         34.26184       35.46025        3.66134
S         33.34696       34.13953        4.30435
C         32.62155       33.89873        2.77240
C         31.72221       32.98660        2.15872
S         30.76385       31.63734        2.57854
C         34.01675       35.70585        2.34465
C         33.05880       34.81864        1.81586
C         32.42675       34.50351        0.53430
C         32.54516       35.08874       -0.67251
C         33.24475       36.32618       -0.97489
C         34.00032       36.43147       -2.14424
C         34.66711       37.60002       -2.45301
C         34.55961       38.69373       -1.60399
C         35.28688       39.97222       -1.90030
F         35.76688       40.03515       -3.14968
F         34.50851       41.05646       -1.73552
F         36.34461       40.15111       -1.08141
C         33.78431       38.61823       -0.45219
C         33.13303       37.44198       -0.14244
C         31.60912       33.32057        0.80837
C         30.73684       32.47715        0.11566
C         30.18821       31.50145        0.92089
C         29.25667       30.46117        0.57028
C         28.72091       29.63939        1.57205
C         27.82250       28.66137        1.22268
N         27.20176       27.73652        2.03638
C         27.34202       27.59591        3.46403
C         28.37139       26.52405        3.85452
C         29.77923       26.91095        3.41061
C         28.32589       26.30335        5.36368
C         26.40764       26.89568        1.29919
O         25.72919       26.02275        1.80062
C         28.87475       30.24213       -0.76065
C         27.96531       29.26355       -1.10592
C         27.40020       28.46661       -0.11513
C         26.48874       27.34859       -0.12902
C         25.74445       26.81848       -1.14980
C         25.01043       25.57697       -1.21250
C         24.98271       24.43501       -0.41855
C         24.18382       23.37157       -0.78674
C         25.42980       27.52171       -2.43569
O         25.80924       28.59850       -2.84903
N         24.52600       26.74186       -3.11272
C         23.99209       27.13256       -4.39393
C         22.70308       27.96247       -4.28613
C         22.39542       28.59560       -5.64032
C         21.52356       27.11799       -3.81223
C         24.27545       25.57322       -2.42299
C         23.47702       24.51822       -2.79349
C         23.39703       23.40562       -1.94308
C         22.48571       22.33375       -2.25246
S         22.67572       20.74933       -1.52495
C         21.25940       20.20278       -2.31333
C         20.43330       19.05113       -2.32859
S         20.40545       17.47749       -1.66525
C         21.37361       22.39627       -3.06345
C         20.67044       21.18928       -3.11385
C         19.42312       20.66569       -3.67372
C         18.52731       21.25788       -4.48539
C         18.68778       22.55024       -5.13418
C         19.89205       22.90188       -5.74670
C         20.03773       24.12541       -6.36997
C         18.97407       25.01796       -6.38559
C         19.09815       26.35924       -7.04656
F         20.29967       26.56638       -7.60430
F         18.19097       26.52965       -8.02620
F         18.90274       27.37394       -6.18291
C         17.76015       24.67563       -5.80005
C         17.61748       23.44539       -5.19197
C         19.30734       19.31967       -3.11348
C         18.41392       18.24663       -3.15641
C         18.84869       17.16457       -2.42077
C         18.19193       15.90309       -2.19247
C         18.92628       14.81412       -1.70176
C         18.27005       13.63418       -1.44991
N         18.79824       12.44108       -1.00425
C         20.19043       12.17525       -0.75237
C         21.00925       12.02109       -2.04364
C         22.47882       11.81621       -1.68791
C         20.48475       10.85367       -2.87430
C         17.82123       11.48287       -0.90088
O         18.03535       10.35764       -0.50041
C         16.82080       15.74576       -2.43642
C         16.16282       14.56475       -2.15790
C         16.87274       13.49258       -1.62706
C         16.52280       12.14130       -1.26421
C         15.29400       11.55458       -1.11761
C         14.94254       10.16766       -0.93953
C         15.63699        8.97365       -1.10285
C         14.98065        7.77712       -0.90345
C         14.00978       12.30765       -0.94401
O         13.79747       13.50216       -0.98642
N         13.04451       11.38879       -0.61588
C         11.68676       11.78869       -0.33858
C         10.84354       11.96381       -1.61090
C         10.58555       10.62623       -2.29826
C          9.52698       12.64790       -1.25392
C         13.56091       10.10862       -0.63246
C         12.90786        8.91917       -0.41377
C         13.63008        7.72144       -0.53696
C         12.98645        6.45436       -0.30429
S         13.81838        4.95566       -0.68708
C         12.47230        4.05048       -0.14954
C         12.11951        2.69196        0.04686
S         12.78070        1.13814       -0.21027
C         11.72855        6.21984        0.20995
C         11.41723        4.85986        0.29037
C         10.33563        4.00321        0.78158
C          9.13837        4.33633        1.29809
C          8.58052        5.67951        1.34552
C          8.63972        6.51697        0.22908
C          8.11926        7.79316        0.28032
C          7.53286        8.25100        1.45548
C          7.02708        9.66213        1.49232
F          8.03559       10.55206        1.36156
F          6.17519        9.93030        0.48617
F          6.39173        9.97790        2.62614
C          7.43738        7.42165        2.56454
C          7.94569        6.13903        2.49995
C         10.84917        2.64249        0.63014
C         10.42092        1.33602        0.87188
C         11.34778        0.39124        0.48047
C         11.27379       -1.04287        0.58764
C         10.26056       -1.65265        1.34345
C         10.24509       -3.02329        1.44364
N          9.34191       -3.82279        2.11475
C          8.19694       -3.40249        2.88248
C          6.89113       -3.46043        2.07456
C          5.70594       -3.20859        3.00212
C          6.89925       -2.45575        0.92598
C          9.64803       -5.14988        1.94828
O          9.01465       -6.04019        2.47784
C         12.21504       -1.85327       -0.05943
C         12.19790       -3.22800        0.04726
C         11.22370       -3.84219        0.82820
C         10.89622       -5.21700        1.12105
C         11.57390       -6.37345        0.83399
C         11.14962       -7.75001        0.93301
C          9.92419       -8.37341        1.14726
C          9.85095       -9.75103        1.12700
C         13.02016       -6.43862        0.43984
O         13.81775       -5.54313        0.25337
N         13.36080       -7.76567        0.37569
C         14.69681       -8.21930        0.08922
C         15.42061       -8.76699        1.32866
C         16.82139       -9.22100        0.92986
C         15.48554       -7.70580        2.42311
C         12.26950       -8.56571        0.64036
C         12.20284       -9.93748        0.61527
C         10.97190      -10.55573        0.88684
C         10.87183      -11.99115        0.93388
S          9.31001      -12.76458        1.15051
C         10.05143      -14.30374        1.14425
C          9.66359      -15.66547        1.20538
S          8.24063      -16.59995        1.35978
C         11.89202      -12.91741        0.86608
C         11.44441      -14.23375        1.00474
C         11.98689      -15.59314        0.98442
C         13.25125      -16.03865        0.85629
C         14.46837      -15.24519        0.84035
C         14.65759      -14.17635        1.71850
C         15.83023      -13.44670        1.70122
C         16.83602      -13.78605        0.80570
C         18.11145      -12.99853        0.74456
F         18.30129      -12.20925        1.81075
F         19.19741      -13.78421        0.65251
F         18.14975      -12.18827       -0.33486
C         16.67380      -14.86053       -0.06200
C         15.50339      -15.58919       -0.03310
C         10.81126      -16.45611        1.09412
C         10.52967      -17.82197        1.15041
C          9.18167      -18.08174        1.28900
C          8.52146      -19.35971        1.36613
C          9.26632      -20.53126        1.56913
C          8.60390      -21.73380        1.62925
N          9.13823      -22.99586        1.79310
C         10.52322      -23.34430        1.98681
C         11.21140      -23.77815        0.68320
C         11.29061      -22.62893       -0.31769
C         12.60508      -24.31451        0.99717
C          8.15538      -23.95116        1.74146
O          8.37933      -25.13187        1.91137
C          7.13165      -19.45696        1.22959
C          6.47090      -20.66657        1.29474
C          7.19654      -21.83380        1.50912
C          6.84989      -23.23678        1.55111
C          5.62893      -23.85046        1.48888
C          5.28908      -25.23726        1.23893
C          6.02953      -26.34944        0.85801
C          5.37625      -27.54758        0.61652
C          4.31586      -23.17149        1.74460
O          4.08399      -22.02138        2.06028
N          3.33966      -24.12796        1.65366
C          1.94673      -23.81411        1.85022
C          1.30343      -23.18464        0.60472
C          1.31445      -24.14940       -0.57760
C         -0.12266      -22.75237        0.93272
C          3.88289      -25.35559        1.32866
C          3.23375      -26.55118        1.09720
C          4.00077      -27.65331        0.74613
H         34.93647       35.98029        4.31186
H         34.51903       36.47717        1.78998
H         32.08083       34.59673       -1.51818
H         34.07984       35.58009       -2.80338
H         35.26174       37.67024       -3.35076
H         33.69137       39.48205        0.18868
H         32.50718       37.38713        0.73459
H         30.50717       32.57328       -0.92934
H         29.02084       29.78345        2.59835
H         26.36207       27.30015        3.85210
H         27.61601       28.56355        3.88917
H         28.08400       25.59416        3.35267
H         29.82058       27.07385        2.33606
H         30.48158       26.11929        3.66123
H         30.10110       27.82156        3.91245
H         27.33293       25.99014        5.67672
H         28.58138       27.22106        5.88991
H         29.03583       25.53305        5.65421
H         29.30123       30.85042       -1.54159
H         27.68418       29.13541       -2.13608
H         25.55362       24.38312        0.49107
H         24.14110       22.49755       -0.15371
H         23.82150       26.23741       -4.99714
H         24.76117       27.74423       -4.87570
H         22.88357       28.75900       -3.55668
H         22.27350       27.82909       -6.40242
H         23.19960       29.26073       -5.94503
H         21.47483       29.17082       -5.58612
H         21.71587       26.68658       -2.83247
H         21.32577       26.31190       -4.51779
H         20.62767       27.73079       -3.74684
H         22.92992       24.53115       -3.72133
H         21.06388       23.30017       -3.55400
H         17.59262       20.74603       -4.67623
H         20.70784       22.19561       -5.75229
H         20.96945       24.38603       -6.84923
H         16.93669       25.37280       -5.83068
H         16.67567       23.17775       -4.73744
H         17.49120       18.24664       -3.70700
H         19.98767       14.91354       -1.53316
H         20.22942       11.24283       -0.18181
H         20.60028       12.98476       -0.14035
H         20.91142       12.94014       -2.63226
H         22.60199       10.90898       -1.10078
H         22.85812       12.65556       -1.10906
H         23.07756       11.72453       -2.59073
H         20.52448        9.93163       -2.29884
H         21.08359       10.72904       -3.77355
H         19.45272       11.02384       -3.17396
H         16.25508       16.57858       -2.82232
H         15.10345       14.48986       -2.32800
H         16.67974        8.97520       -1.36535
H         15.52602        6.85239       -1.02159
H         11.74298       12.75190        0.17793
H         11.22617       11.05706        0.32832
H         11.40516       12.61064       -2.29323
H         10.02334        9.96716       -1.63909
H         11.51833       10.13567       -2.56751
H         10.00466       10.77604       -3.20555
H          9.71010       13.63382       -0.83444
H          8.97921       12.05980       -0.52163
H          8.90710       12.76205       -2.13980
H         11.85906        8.90213       -0.16882
H         11.07714        7.00702        0.54022
H          8.52883        3.55308        1.73034
H          9.08086        6.15021       -0.68474
H          8.15988        8.43835       -0.58487
H          6.96787        7.78004        3.46756
H          7.87617        5.49236        3.36160
H          9.47016        1.08496        1.30500
H          9.51817       -1.05306        1.84312
H          8.37305       -2.39244        3.25795
H          8.11472       -4.08826        3.73184
H          6.80657       -4.47059        1.66104
H          5.77984       -2.22198        3.45584
H          5.67437       -3.95168        3.79501
H          4.77327       -3.26090        2.44603
H          6.95569       -1.43870        1.31003
H          5.98650       -2.54640        0.34169
H          7.74537       -2.62419        0.26366
H         12.97994       -1.38382       -0.66022
H         12.94815       -3.81178       -0.45477
H          9.04060       -7.79568        1.35122
H          8.89998      -10.22786        1.31431
H         15.24104       -7.35108       -0.29304
H         14.65537       -8.98481       -0.69294
H         14.86050       -9.62818        1.71125
H         17.40442       -8.37381        0.57660
H         16.77979       -9.96114        0.13369
H         17.33768       -9.65911        1.78020
H         15.97518       -6.80888        2.05112
H         16.04479       -8.07839        3.27807
H         14.48748       -7.43361        2.76059
H         13.07405      -10.52605        0.38019
H         12.91968      -12.64493        0.71556
H         13.39459      -17.10543        0.73549
H         13.88979      -13.94170        2.43915
H         15.97201      -12.62363        2.38504
H         17.46769      -15.12232       -0.74482
H         15.37562      -16.42461       -0.70489
H         11.27297      -18.59369        1.07045
H         10.33626      -20.48328        1.68319
H         10.54489      -24.18270        2.69043
H         11.04349      -22.49409        2.43262
H         10.61210      -24.58493        0.24900
H         10.30234      -22.23175       -0.53793
H         11.73444      -22.97271       -1.24915
H         11.90938      -21.82411        0.07533
H         12.54656      -25.16163        1.67590
H         13.21545      -23.54185        1.46114
H         13.09913      -24.63967        0.08503
H          6.56105      -18.55500        1.06403
H          5.40023      -20.69594        1.19917
H          7.09966      -26.29463        0.76917
H          5.95202      -28.41369        0.32810
H          1.89194      -23.09627        2.67501
H          1.41736      -24.72489        2.13643
H          1.89095      -22.29818        0.34422
H          0.71563      -25.03094       -0.35662
H          2.32706      -24.46898       -0.81346
H          0.89649      -23.66749       -1.45845
H         -0.58401      -22.28425        0.06680
H         -0.12925      -22.03854        1.75276
H         -0.72493      -23.61274        1.21853
H          2.16146      -26.63472        1.17784
H          3.51425      -28.60048        0.56620
