150
d3a2.out	Energy:  -17006.2666443
C        -21.30846        1.43578       -1.42440
S        -19.72626        2.05872       -1.74736
C        -19.12091        0.45921       -1.85315
C        -17.89926       -0.18847       -2.16487
S        -16.28394        0.21283       -2.55476
C        -21.36593        0.07553       -1.39353
C        -20.10531       -0.50839       -1.62432
C        -19.51018       -1.83408       -1.78518
C        -20.04542       -3.06657       -1.68704
C        -21.37729       -3.41408       -1.22417
C        -22.07766       -4.45027       -1.84668
C        -23.34135       -4.80806       -1.42178
C        -23.89524       -4.13896       -0.34413
F        -25.12691       -4.48710        0.08104
C        -23.21387       -3.13336        0.31892
C        -21.95682       -2.77443       -0.12660
C        -18.11812       -1.56965       -2.15078
C        -16.97132       -2.30249       -2.45263
C        -15.87835       -1.49682       -2.70499
C        -14.54622       -1.88392       -3.05419
C        -13.54533       -0.94648       -3.27397
C        -12.24053       -1.28102       -3.61368
C        -11.81830       -2.59617       -3.76431
C        -12.80962       -3.59706       -3.55362
C        -14.16846       -3.25236       -3.19893
N        -14.96343       -4.30175       -3.03880
Se       -14.05920       -5.77663       -3.32143
N        -12.58502       -4.89726       -3.65920
C        -10.47695       -2.95142       -4.10926
S        -10.02215       -4.62954       -4.32398
C         -8.41442       -4.15770       -4.67966
C         -7.17032       -4.77282       -4.93825
S         -6.51914       -6.34614       -5.12415
C         -9.40793       -2.09291       -4.31480
C         -8.23618       -2.76197       -4.65554
C         -6.82879       -2.45772       -4.91763
C         -6.18221       -1.27816       -4.98378
C         -6.77841        0.04725       -4.96188
C         -6.15112        1.08053       -4.26232
C         -6.69582        2.34887       -4.23030
C         -7.86614        2.58851       -4.92911
F         -8.40248        3.82584       -4.90579
C         -8.49315        1.59709       -5.66359
C         -7.94493        0.32949       -5.67565
C         -6.19663       -3.76817       -5.06213
C         -4.92952       -4.28233       -5.30785
C         -4.91993       -5.66896       -5.36730
C         -3.79587       -6.52506       -5.57725
C         -2.49933       -6.05024       -5.74830
C         -1.40240       -6.88346       -5.92610
C         -1.49876       -8.27097       -5.95172
C         -2.80883       -8.80640       -5.79776
C         -3.94819       -7.94094       -5.61124
N         -5.10014       -8.58052       -5.47935
Se        -4.82766      -10.30841       -5.58098
N         -3.10226      -10.09800       -5.80622
C         -0.36695       -9.12960       -6.10621
S         -0.56200      -10.87043       -6.10702
C          1.13041      -11.06740       -6.29054
C          2.05954      -12.11632       -6.45772
S          2.07802      -13.82559       -6.52498
C          0.96071       -8.75449       -6.24402
C          1.82334       -9.84277       -6.33029
C          3.24974      -10.10796       -6.52296
C          4.29422       -9.26629       -6.64239
C          4.27720       -7.82506       -6.45300
C          3.58056       -7.24226       -5.39254
C          3.58175       -5.87287       -5.21231
C          4.28591       -5.08319       -6.10440
F          4.27945       -3.74400       -5.94061
C          5.00719       -5.63018       -7.15125
C          5.00970       -7.00174       -7.31080
C          3.33967      -11.56372       -6.61588
C          4.32967      -12.52770       -6.77970
C          3.82609      -13.81574       -6.75955
C          4.53377      -15.04921       -6.89993
C          3.87614      -16.27346       -6.92012
C          4.52674      -17.49265       -7.05688
C          5.90717      -17.59678       -7.18022
C          6.62943      -16.36952       -7.15717
C          5.95511      -15.09748       -7.02279
N          6.77340      -14.05426       -7.02141
Se         8.43047      -14.60192       -7.18696
N          7.94671      -16.28218       -7.25632
C          6.58810      -18.84576       -7.32591
S          8.33527      -18.89826       -7.44036
C          8.28189      -20.60427       -7.57939
C          9.18802      -21.68449       -7.65862
S         10.87603      -21.94706       -7.72630
C          6.02369      -20.10953       -7.40243
C          6.97192      -21.11615       -7.56616
C          7.03123      -22.57664       -7.65213
C          6.05249      -23.50198       -7.67336
C          4.62305      -23.26267       -7.77312
C          4.10838      -22.28841       -8.63110
C          2.74644      -22.08396       -8.73436
C          1.89486      -22.86258       -7.97007
F          0.56446      -22.66080       -8.05974
C          2.37028      -23.85298       -7.12818
C          3.73334      -24.05632       -7.04532
C          8.46022      -22.88208       -7.68031
C          9.27676      -24.00900       -7.75782
C         10.61958      -23.68989       -7.78855
C         11.74796      -24.57276       -7.86269
C         13.04478      -24.09155       -7.87966
C         14.16878      -24.92588       -7.95541
C         14.05093      -26.28666       -8.01836
C         12.75817      -26.84197       -8.00423
C         11.58929      -25.99254       -7.92557
N         10.44125      -26.65520       -7.92072
Se        10.76308      -28.37736       -8.01541
N         12.49294      -28.14286       -8.05905
H        -22.11110        2.13047       -1.27530
H        -22.27762       -0.46845       -1.22679
H        -19.42514       -3.90094       -1.99145
H        -21.63018       -4.96335       -2.68491
H        -23.89602       -5.59649       -1.90550
H        -23.66713       -2.65068        1.17053
H        -21.39804       -2.01497        0.39788
H        -16.90620       -3.37294       -2.49766
H        -13.79465        0.10043       -3.17582
H        -11.53477       -0.47963       -3.76468
H         -9.48559       -1.02805       -4.19896
H         -5.10160       -1.30208       -5.05436
H         -5.23818        0.87761       -3.72231
H         -6.22671        3.14953       -3.68058
H         -9.39081        1.82608       -6.21650
H         -8.40280       -0.44783       -6.26760
H         -4.04665       -3.68314       -5.43459
H         -2.32640       -4.98575       -5.73728
H         -0.43363       -6.42383       -6.04443
H          1.27419       -7.72849       -6.29178
H          5.25131       -9.69277       -6.91657
H          3.06185       -7.87587       -4.68977
H          3.05164       -5.41387       -4.39235
H          5.55654       -4.98466       -7.81821
H          5.56742       -7.44442       -8.12261
H          5.37706      -12.33356       -6.91221
H          2.79956      -16.27615       -6.82747
H          3.92778      -18.38953       -7.06457
H          4.96604      -20.28049       -7.32726
H          6.34916      -24.54157       -7.60584
H          4.78529      -21.71318       -9.24356
H          2.33921      -21.33818       -9.39909
H          1.67602      -24.45084       -6.55909
H          4.12032      -24.82574       -6.39392
H          8.93741      -25.02709       -7.78858
H         13.19916      -23.02319       -7.83255
H         15.14790      -24.47076       -7.96385
H         14.90533      -26.94060       -8.07772
