166
d3a7.out	Energy:  -11965.5973039
C         29.86200       -1.73066        2.13449
S         28.21884       -2.27236        2.14343
C         27.69077       -0.67248        1.83244
C         26.47217        0.00168        1.58277
S         24.79482       -0.33345        1.51800
C         29.99823       -0.39259        1.91373
C         28.75204        0.23975        1.75028
C         28.21307        1.56207        1.44005
C         28.82628        2.74750        1.25844
C         30.22767        3.05021        1.49262
C         30.91442        3.89491        0.61790
C         32.24228        4.20576        0.83070
C         32.89668        3.68918        1.94165
C         34.33092        4.03486        2.21465
F         34.97342        4.51925        1.14259
F         34.45211        4.97007        3.17944
F         35.04234        2.97531        2.63867
C         32.21862        2.87744        2.84414
C         30.89523        2.56003        2.61736
C         26.76973        1.34976        1.31711
C         25.63704        2.10773        1.06272
C         24.47326        1.34930        1.13071
C         23.14253        1.79408        0.94853
C         22.78954        3.12620        0.63009
N         23.62454        4.14549        0.41613
S         22.77611        5.47176        0.08791
N         21.30493        4.83493        0.20015
C         21.40924        3.54164        0.50039
C         22.04221        0.91996        1.09359
N         22.14366       -0.38179        1.36562
S         20.67546       -1.02579        1.45718
N         19.82917        0.30848        1.15863
C         20.66267        1.33501        0.97205
C         20.30858        2.67576        0.68753
C         18.97729        3.13705        0.61311
S         18.61099        4.80297        0.20296
C         16.93223        4.47595        0.37156
C         15.71791        5.17313        0.33650
S         15.14616        6.75985        0.02245
C         17.83008        2.38666        0.86047
C         16.67240        3.12548        0.71505
C         15.23222        2.94790        0.89839
C         14.54629        1.84020        1.23578
C         15.13050        0.51159        1.36428
C         14.83363       -0.28739        2.46859
C         15.43355       -1.52132        2.62730
C         16.31812       -1.98343        1.66111
C         17.03044       -3.29032        1.84421
F         16.40882       -4.12326        2.68975
F         17.19111       -3.96295        0.69284
F         18.27721       -3.11551        2.34153
C         16.58405       -1.22343        0.52817
C         15.98946        0.01269        0.38304
C         14.67285        4.27922        0.67978
C         13.43425        4.88660        0.70302
C         13.50384        6.24197        0.37398
C         12.44316        7.16706        0.31210
C         11.09953        6.86314        0.65060
N         10.64664        5.67799        1.05948
S          9.06673        5.77392        1.34401
N          8.86613        7.32281        0.96099
C         10.03618        7.84694        0.59337
C         12.65071        8.50375       -0.10034
N         13.82074        9.02076       -0.47066
S         13.61492       10.56500       -0.87766
N         12.03135       10.65819       -0.60365
C         11.58955        9.47629       -0.17768
C         10.25319        9.18547        0.17697
C          9.23860       10.16072        0.10955
S          9.55810       11.75840       -0.54342
C          7.91653       12.19377       -0.28253
C          7.09286       13.31656       -0.42534
S          7.18977       14.92396       -1.01821
C          7.91313       10.00864        0.51468
C          7.15685       11.14014        0.28765
C          5.79158       11.60982        0.52325
C          4.75169       10.96062        1.07810
C          4.76006        9.55306        1.45737
C          4.29795        9.15797        2.71278
C          4.36351        7.83489        3.10381
C          4.86685        6.88417        2.22503
C          5.00708        5.45289        2.64970
F          4.21727        5.12137        3.67997
F          4.73062        4.58599        1.66114
F          6.27072        5.16692        3.04109
C          5.28215        7.25260        0.95078
C          5.22432        8.57802        0.57265
C          5.80346       12.99865        0.07117
C          4.91854       14.05270       -0.02469
C          5.50472       15.18477       -0.59548
C          4.89553       16.43003       -0.84665
C          3.55465       16.74296       -0.51210
N          2.67260       15.94006        0.08312
S          1.27670       16.72169        0.26725
N          1.71182       18.11978       -0.39677
C          2.97956       18.03971       -0.79648
C          5.59926       17.48450       -1.47572
N          6.86546       17.40518       -1.88105
S          7.29868       18.79683       -2.56033
N          5.90180       19.57392       -2.37769
C          5.02188       18.77661       -1.76712
C          3.68393       19.09118       -1.42577
C          3.08032       20.33925       -1.68811
S          1.40527       20.64838       -1.26685
C          1.53637       22.23585       -1.90905
C          0.74825       23.39158       -2.02949
S         -0.84032       23.91672       -1.65444
C          3.68541       21.43694       -2.29497
C          2.81984       22.50407       -2.44264
C          2.85404       23.88162       -2.93546
C          3.87042       24.56134       -3.49756
C          5.16125       23.98396       -3.84965
C          5.23704       22.77648       -4.54636
C          6.45849       22.20368       -4.83423
C          7.62649       22.84074       -4.43221
C          8.94477       22.17097       -4.68196
F          8.98420       21.51709       -5.85463
F          9.98219       23.01924       -4.68295
F          9.22242       21.24275       -3.73718
C          7.57123       24.06333       -3.77510
C          6.34444       24.63547       -3.50103
C          1.52588       24.40714       -2.63250
C          0.83003       25.59269       -2.78738
C         -0.47302       25.50511       -2.30591
C         -1.45809       26.52300       -2.29415
C         -1.25385       27.82740       -2.79871
N         -0.13724       28.30088       -3.35592
S         -0.37092       29.83427       -3.77981
N         -1.88461       29.99721       -3.29021
C         -2.30015       28.83864       -2.75770
C         -2.74407       26.29770       -1.76037
N         -3.16435       25.14853       -1.23078
S         -4.68563       25.32458       -0.74200
N         -4.90312       26.85199       -1.16719
C         -3.77537       27.31772       -1.72597
C         -3.55995       28.59534       -2.22436
H         30.64023       -2.44956        2.29742
H         30.95314        0.09750        1.85981
H         28.22327        3.57148        0.89789
H         30.40297        4.29399       -0.24505
H         32.77215        4.84627        0.14256
H         32.73146        2.50050        3.71615
H         30.35720        1.95335        3.32879
H         25.60934        3.15702        0.83540
H         17.89965        1.35470        1.14635
H         13.49000        1.93088        1.45255
H         14.15195        0.07767        3.22185
H         15.21905       -2.12646        3.49479
H         17.25486       -1.60048       -0.22822
H         16.18084        0.60074       -0.50063
H         12.49772        4.41944        0.94403
H          7.57729        9.09165        0.95894
H          3.84746       11.51610        1.28994
H          3.91534        9.90026        3.39690
H          4.02723        7.53717        4.08516
H          5.65108        6.50384        0.26699
H          5.53307        8.86806       -0.41927
H          3.89073       14.05493        0.28736
H          4.71774       21.40400       -2.58583
H          3.74430       25.61987       -3.68405
H          4.32759       22.29413       -4.86827
H          6.51193       21.26537       -5.36438
H          8.48397       24.55965       -3.48303
H          6.29832       25.58172       -2.98345
H          1.20696       26.50164       -3.21813
H         -4.32137       29.35432       -2.20037
