134
d3a9.out	Energy:  -16263.7440457
C          9.43961      -14.52309       -2.46133
S         11.13092      -14.15499       -2.41600
C         10.76170      -12.48965       -2.25892
C         11.45580      -11.26838       -2.06505
S         13.06859      -10.70099       -1.94763
C          8.63849      -13.42636       -2.36816
C          9.38630      -12.23690       -2.26554
C          9.16922      -10.80373       -2.07555
C          8.03686      -10.07705       -2.00452
C          6.68182      -10.52761       -2.26734
C          5.62687      -10.03777       -1.49332
C          4.32729      -10.43813       -1.73036
C          4.08107      -11.31638       -2.77148
F          2.81314      -11.70667       -3.01397
C          5.09792      -11.79202       -3.58086
C          6.39542      -11.39540       -3.32320
C         10.51421      -10.24536       -1.92723
C         11.10350       -8.99664       -1.73003
C         12.48273       -9.06028       -1.71057
C         13.39245       -7.98677       -1.52886
C         14.76873       -8.04054       -1.53553
C         15.42555       -6.82284       -1.33589
C         14.60841       -5.72656       -1.15657
Se        12.79315       -6.22215       -1.23889
C         15.00536       -4.38004       -0.94246
S         13.78932       -3.14465       -0.66930
C         15.01322       -1.95396       -0.53607
C         15.10661       -0.55347       -0.38681
S         14.07001        0.79550       -0.17303
C         16.28674       -3.86248       -0.91569
C         16.30493       -2.48784       -0.67108
C         17.27439       -1.39337       -0.59973
C         18.61832       -1.39814       -0.68730
C         19.49045       -2.55964       -0.72049
C         20.61496       -2.55911       -1.54898
C         21.46403       -3.64680       -1.59290
C         21.19768       -4.73245       -0.77672
F         22.02561       -5.79620       -0.80953
C         20.11341       -4.75020        0.08326
C         19.26306       -3.66215        0.10566
C         16.45807       -0.18997       -0.44642
C         16.64911        1.18368       -0.31748
C         15.46033        1.87243       -0.16509
C         15.28923        3.27245       -0.02729
C         14.10994        3.96323        0.15079
C         14.22793        5.35218        0.24509
C         15.51055        5.85025        0.14481
Se        16.75594        4.45700       -0.08900
C         15.91631        7.20971        0.19031
S         17.60789        7.61958       -0.03408
C         17.23762        9.28291        0.13368
C         17.92587       10.51389        0.17658
S         19.52807       11.10200        0.01848
C         15.13047        8.33123        0.38004
C         15.86747        9.51615        0.33375
C         15.65825       10.95469        0.50934
C         14.53332       11.65702        0.74302
C         13.17030       11.15260        0.72580
C         12.25290       11.59633        1.68059
C         10.95177       11.13452        1.68189
C         10.56109       10.24214        0.69870
F          9.29074        9.79017        0.69056
C         11.43441        9.81180       -0.28490
C         12.73750       10.26911       -0.26495
C         16.99806       11.53435        0.42135
C         17.59062       12.79431        0.47416
C         18.95809       12.74535        0.27863
C         19.87117       13.82922        0.27010
C         21.23301       13.77294        0.06578
C         21.90423       14.99717        0.10517
C         21.11507       16.10341        0.34332
Se        19.30972       15.60835        0.54989
C         21.53873       17.45560        0.43334
S         20.37241       18.72268        0.77046
C         21.61606       19.89879        0.70968
C         21.74426       21.30433        0.78528
S         20.75586       22.67908        1.05336
C         22.82003       17.95410        0.29194
C         22.87859       19.33845        0.46337
C         23.86440       20.41817        0.38195
C         25.19011       20.37757        0.14974
C         26.02313       19.18857        0.07329
C         27.02917       19.10395       -0.89135
C         27.83297       17.98488       -0.98086
C         27.64385       16.95504       -0.07573
F         28.42759       15.86064       -0.15435
C         26.68166       17.02334        0.91666
C         25.87380       18.14149        0.98481
C         23.08516       21.64050        0.57007
C         23.30822       23.01701        0.62912
C         22.15445       23.72939        0.87918
C         22.01009       25.14104        0.99856
C         20.85935       25.84369        1.25348
C         21.01246       27.24274        1.32039
C         22.27940       27.69103        1.12139
Se        23.47790       26.31057        0.81207
H          9.14203      -15.54845       -2.55535
H          7.56539      -13.48418       -2.35808
H          8.13237       -9.03664       -1.71771
H          5.83588       -9.35148       -0.68613
H          3.50801      -10.07627       -1.12942
H          4.86547      -12.45602       -4.39864
H          7.19627      -11.73017       -3.96396
H         10.57717       -8.06420       -1.60045
H         15.29580       -8.96826       -1.68692
H         16.49922       -6.74500       -1.32110
H         17.15729       -4.46683       -1.09023
H         19.11768       -0.43849       -0.74459
H         20.80942       -1.70338       -2.17827
H         22.32642       -3.66218       -2.24041
H         19.95075       -5.60337        0.72313
H         18.43039       -3.64571        0.79164
H         17.59988        1.69259       -0.33459
H         13.16226        3.45358        0.21042
H         13.37432        5.99368        0.38257
H         14.07327        8.27139        0.55965
H         14.63966       12.70959        0.97593
H         12.57345       12.29389        2.43996
H         10.23999       11.45880        2.42440
H         11.08847        9.13463       -1.05009
H         13.42431        9.96729       -1.04047
H         17.07675       13.72644        0.64766
H         21.73762       12.83754       -0.11246
H         22.96800       15.07374       -0.04119
H         23.66097       17.32837        0.05824
H         25.70224       21.31960       -0.00415
H         27.16433       19.91655       -1.58948
H         28.60194       17.90274       -1.73255
H         26.57829       16.21208        1.62020
H         25.13716       18.22451        1.76888
H         24.26054       23.50414        0.49576
H         19.91090       25.35166        1.39194
H         20.18493       27.90419        1.51463
H         22.61028       28.71347        1.13042
