198
d4a11.out	Energy:  -11602.2556004
C         16.33316      -14.23367        2.71272
S         16.74700      -12.90198        1.68823
C         15.64206      -11.90789        2.53500
C         15.24236      -10.54752        2.54384
S         15.55960       -9.10194        1.68647
C         15.39180      -13.93168        3.64933
C         14.96632      -12.59196        3.55328
C         14.08855      -11.65215        4.24763
C         13.25362      -11.81748        5.29269
C         12.88340      -13.07025        5.92247
C         12.69632      -13.12891        7.30557
C         12.33410      -14.31869        7.91384
C         12.18883      -14.36873        9.41125
F         11.77904      -13.20070        9.92754
F         11.31457      -15.29735        9.81814
F         13.35737      -14.65686       10.01511
C         12.13697      -15.47620        7.17172
C         12.28790      -15.40515        5.79455
C         12.08418      -16.62446        4.93608
F         11.57581      -17.66547        5.60201
F         11.26025      -16.38426        3.90340
F         13.24505      -17.04445        4.39610
C         12.65259      -14.22271        5.17028
C         14.32348      -10.36617        3.58538
C         13.87058       -9.05519        3.68911
C         14.44791       -8.23106        2.73417
C         14.22910       -6.84853        2.57281
C         13.38918       -6.01928        3.32794
N         12.60611       -6.38443        4.36165
C         11.89678       -5.44455        4.93575
C         11.03019       -5.85293        6.08056
C         11.93828       -4.07996        4.49889
C         11.12165       -3.02563        5.16600
N         12.69481       -3.70661        3.49795
C         13.42717       -4.65869        2.89862
C         14.28821       -4.43398        1.82180
S         15.04026       -5.92224        1.34423
C         14.54163       -3.19828        1.20614
S         13.73908       -1.75276        1.78967
C         14.57290       -0.82256        0.61167
C         14.72929        0.53554        0.26572
S         14.14604        2.07400        0.75739
C         15.39690       -2.94555        0.14366
C         15.40823       -1.60353       -0.21524
C         16.11072       -0.72152       -1.14715
C         16.99595       -0.99451       -2.12568
C         17.37582       -2.30927       -2.60804
C         16.43673       -3.33177       -2.75120
C         16.82488       -4.58159       -3.20618
C         15.77339       -5.65058       -3.34107
F         14.95988       -5.69226       -2.27214
F         14.97860       -5.43876       -4.40620
F         16.28346       -6.87790       -3.48359
C         18.14290       -4.84468       -3.55186
C         19.06652       -3.81324       -3.44782
C         20.50759       -4.06173       -3.80520
F         20.66792       -5.08522       -4.65184
F         21.08292       -2.99320       -4.37768
F         21.24807       -4.34735       -2.71740
C         18.69584       -2.56040       -2.98774
C         15.67604        0.62229       -0.77278
C         15.93176        1.92772       -1.16233
C         15.19108        2.84350       -0.42518
C         15.22888        4.24277       -0.50714
C         14.48001        5.14023        0.26091
N         13.56392        4.77916        1.17289
C         12.96468        5.74191        1.82761
C         11.93260        5.34659        2.82800
C         13.29062        7.11845        1.59721
C         12.63936        8.19984        2.39312
N         14.16914        7.48625        0.69688
C         14.77698        6.50947       -0.00323
C         15.75566        6.66992       -0.99577
S         16.28547        5.11657       -1.57211
C         16.28835        7.87504       -1.48090
S         17.59736        7.91208       -2.65449
C         17.59497        9.62470       -2.60813
C         18.36065       10.68714       -3.12314
S         19.70807       10.91772       -4.15894
C         15.88215        9.14888       -1.10571
C         16.60012       10.14356       -1.75457
C         16.70529       11.60432       -1.74776
C         15.93941       12.51267       -1.11380
C         14.70667       12.21771       -0.40162
C         14.41765       12.85018        0.80875
C         13.24493       12.55769        1.48425
C         12.94552       13.19317        2.81526
F         13.75790       14.21487        3.10784
F         11.69111       13.66515        2.88305
F         13.06656       12.30810        3.82350
C         12.32487       11.65039        0.97356
C         12.60149       11.04645       -0.24463
C         11.60909       10.09652       -0.85965
F         10.76225        9.57159        0.03702
F         10.84595       10.70659       -1.78612
F         12.19825        9.06570       -1.48046
C         13.77085       11.32777       -0.93158
C         17.86555       11.89307       -2.58816
C         18.58526       13.00071       -3.01369
C         19.62641       12.64825       -3.86354
C         20.59377       13.46586       -4.46554
C         21.60837       13.00726       -5.31162
N         21.75966       11.72608       -5.67837
C         22.77503       11.44225       -6.45434
C         22.93716       10.02252       -6.87708
C         23.69549       12.45767       -6.87394
C         24.88339       12.10770       -7.70653
N         23.54625       13.71663       -6.54257
C         22.49302       14.02824       -5.76175
C         22.15004       15.29523       -5.26577
S         20.74317       15.18085       -4.24636
C         22.81755       16.50460       -5.52584
S         22.38940       18.02283       -4.74926
C         23.64057       18.82084       -5.60865
C         24.24426       20.09510       -5.66055
S         24.05953       21.64053       -4.94695
C         23.87627       16.64969       -6.41104
C         24.32964       17.95928       -6.48360
C         25.39197       18.71329       -7.15188
C         26.26362       18.30986       -8.09589
C         26.22334       17.02776       -8.78018
C         25.01154       16.48844       -9.21566
C         24.97870       15.26154       -9.85727
C         23.65369       14.71919      -10.32141
F         22.65990       14.98078       -9.46158
F         23.28179       15.25389      -11.49969
F         23.66665       13.39066      -10.50002
C         26.14508       14.54984      -10.09938
C         27.35244       15.10358       -9.69229
C         28.61132       14.31524       -9.93478
F         28.65783       13.79537      -11.17054
F         29.72536       15.03987       -9.77912
F         28.71213       13.27357       -9.08652
C         27.40116       16.32829       -9.04785
C         25.32415       20.04628       -6.56014
C         25.99568       21.25919       -6.66852
C         25.44410       22.23463       -5.85431
C         25.89860       23.56557       -5.71414
C         26.99416       24.16175       -6.34409
N         27.83339       23.57478       -7.22019
C         28.80668       24.30675       -7.69645
C         29.73609       23.65627       -8.66675
C         28.98623       25.68050       -7.31082
C         30.10962       26.48944       -7.86887
N         28.18791       26.27295       -6.46780
C         27.17167       25.53611       -5.96031
C         26.22426       25.96377       -5.06011
S         25.12323       24.71537       -4.67373
H         16.81969      -15.17526        2.55491
H         15.04814      -14.64669        4.37406
H         12.81241      -10.92910        5.72538
H         12.84639      -12.24317        7.90462
H         11.85581      -16.39998        7.65237
H         12.72944      -14.18380        4.09464
H         13.16834       -8.66925        4.40413
H         11.14143       -6.91911        6.25578
H          9.98595       -5.63208        5.86465
H         11.30941       -5.30952        6.98199
H         11.38756       -2.94647        6.21912
H         10.06177       -3.26804        5.10395
H         11.30327       -2.07345        4.67578
H         15.98037       -3.73077       -0.30142
H         17.49334       -0.16014       -2.60257
H         15.39932       -3.14012       -2.52503
H         18.43959       -5.82024       -3.90353
H         19.43472       -1.77661       -2.91179
H         16.62121        2.23779       -1.92701
H         11.82228        4.26599        2.81620
H         10.97766        5.81330        2.59204
H         12.22632        5.66724        3.82657
H         11.57409        8.24280        2.17077
H         13.09457        9.15575        2.14758
H         12.75423        8.01244        3.45906
H         15.10778        9.27705       -0.37345
H         16.25184       13.54831       -1.11966
H         15.11902       13.55659        1.22657
H         11.41443       11.43100        1.50938
H         13.95473       10.86674       -1.88934
H         18.40031       14.02212       -2.73289
H         22.11809        9.43524       -6.47178
H         23.88199        9.62127       -6.51313
H         22.93626        9.94820       -7.96332
H         25.46847       11.32607       -7.22546
H         25.50664       12.98788       -7.84039
H         24.56592       11.73914       -8.68078
H         24.26529       15.79788       -6.93541
H         27.06631       18.97839       -8.37660
H         24.09627       17.03808       -9.06138
H         26.12008       13.59426      -10.59958
H         28.35086       16.73614       -8.73601
H         26.85027       21.46846       -7.28445
H         29.42895       22.62660       -8.82669
H         30.75614       23.67104       -8.28552
H         29.72517       24.18581       -9.61830
H         30.03549       26.54753       -8.95373
H         31.06707       26.03432       -7.61987
H         30.06817       27.49127       -7.45141
H         26.12538       26.93259       -4.61582
