338
d4a12.out	Energy:  -13092.5019030
C         31.32107       36.30821       -8.37975
S         29.96486       35.32139       -8.80199
C         30.65057       34.01229       -7.94174
C         30.36604       32.64016       -7.70101
S         29.15333       31.49158       -8.04916
C         32.24614       35.66708       -7.61349
C         31.86742       34.33822       -7.33567
C         32.39593       33.14628       -6.67064
C         33.52995       32.94791       -5.97006
C         34.48052       33.95736       -5.54441
C         34.05822       35.20538       -5.08549
C         34.98487       36.14896       -4.67076
C         34.47609       37.49198       -4.22082
F         33.99299       38.20524       -5.25751
F         33.46588       37.38346       -3.34334
F         35.41241       38.24881       -3.64168
C         36.34543       35.88032       -4.69343
C         36.76053       34.62663       -5.12475
C         38.22927       34.29634       -5.10235
F         39.00107       35.36005       -5.36074
F         38.61488       33.83115       -3.89921
F         38.56133       33.35252       -5.99378
C         35.84756       33.66956       -5.53296
C         31.41574       32.09764       -6.95942
C         31.22854       30.74378       -6.66947
C         30.05113       30.24700       -7.18805
C         29.52368       28.90934       -7.10689
C         28.28100       28.61111       -7.68469
C         27.80553       27.32469       -7.61010
N         26.60171       26.83329       -8.06886
C         25.62532       27.56855       -8.82954
C         26.07076       27.81865      -10.27844
C         26.28748       26.49571      -11.00684
C         25.02010       28.66516      -10.99097
C         26.44997       25.51427       -7.72368
O         25.47409       24.85846       -8.02451
C         30.22783       27.88872       -6.45309
C         29.74288       26.59891       -6.37861
C         28.52560       26.28525       -6.97399
C         27.70597       25.09740       -7.01649
C         27.97853       23.82237       -6.59742
C         27.09839       22.69765       -6.38969
C         25.71509       22.55492       -6.36604
C         25.16710       21.32777       -6.05553
C         29.35556       23.28909       -6.33430
O         30.43255       23.84182       -6.43071
N         29.22496       21.95828       -6.03390
C         30.36666       21.14405       -5.69741
C         30.84070       21.37294       -4.25371
C         29.76514       20.97678       -3.24637
C         32.12357       20.58370       -4.01103
C         27.89769       21.58180       -6.03770
C         27.35658       20.35070       -5.74624
C         25.96138       20.21108       -5.76806
C         25.34455       18.93734       -5.48751
S         23.65825       18.88030       -5.00886
C         23.72852       17.17934       -4.90736
C         22.83472       16.10537       -4.66209
S         21.20449       15.85511       -4.22032
C         25.90194       17.67824       -5.55037
C         24.99530       16.66322       -5.21513
C         24.92612       15.20024       -5.16821
C         25.84636       14.24102       -5.39592
C         27.27059       14.39754       -5.60509
C         28.01258       15.36481       -4.92668
C         29.37928       15.46794       -5.13267
C         30.11893       16.55892       -4.41184
F         29.76744       17.77363       -4.88743
F         29.84328       16.58937       -3.09972
F         31.44616       16.48232       -4.52999
C         30.04684       14.61855       -6.00220
C         29.31063       13.63373       -6.64878
C         30.01259       12.70289       -7.60143
F         31.27154       12.43816       -7.22936
F         29.38913       11.52270       -7.72268
F         30.08403       13.22176       -8.84136
C         27.94547       13.51688       -6.45590
C         23.52972       14.90771       -4.84229
C         22.72806       13.78418       -4.62830
C         21.43374       14.11462       -4.28406
C         20.33541       13.23128       -3.98520
C         20.40368       11.87277       -4.33122
C         19.34558       11.05863       -4.00566
N         19.18755        9.71571       -4.27937
C         20.11300        8.88044       -4.99876
C         20.09460        9.13559       -6.51417
C         21.14145        8.25212       -7.18674
C         18.70699        8.86149       -7.08626
C         17.97315        9.26445       -3.82530
O         17.62212        8.10601       -3.91080
C         19.18353       13.71443       -3.35242
C         18.13168       12.88858       -3.01222
C         18.20829       11.53144       -3.30742
C         17.29849       10.42260       -3.15312
C         16.11867       10.33246       -2.46416
C         15.09513        9.31752       -2.50525
C         14.83318        8.25898       -3.36800
C         13.68337        7.51757       -3.19577
C         15.69405       11.27056       -1.37353
O         16.21661       12.29627       -0.98982
N         14.57564       10.72839       -0.79180
C         13.95573       11.30637        0.37437
C         14.47262       10.71689        1.70023
C         14.14635        9.23217        1.83935
C         15.97469       10.94147        1.85354
C         14.15346        9.61441       -1.48951
C         12.99554        8.88876       -1.32658
C         12.75380        7.80969       -2.18962
C         11.56701        7.00169       -2.04869
S         11.51177        5.42047       -2.80603
C          9.93744        5.16877       -2.20167
C          8.92550        4.18041       -2.29640
S          8.67446        2.65026       -3.01170
C         10.40066        7.28420       -1.36981
C          9.46281        6.24449       -1.43687
C          8.09125        5.94506       -1.01543
C          7.17376        6.64435       -0.31690
C          7.32979        7.90888        0.37060
C          6.25078        8.79671        0.42148
C          6.36667       10.00700        1.08209
C          5.20497       10.96482        1.08602
F          4.02184       10.33776        1.02585
F          5.17690       11.73906        2.17794
F          5.24492       11.79838        0.02977
C          7.54961       10.37033        1.71254
C          8.60527        9.47054        1.69169
C          9.91406        9.83548        2.33314
F          9.81720       10.81511        3.23419
F         10.50140        8.79626        2.94357
F         10.79856       10.26131        1.40280
C          8.50569        8.25258        1.03806
C          7.80445        4.63319       -1.59886
C          6.74463        3.72411       -1.63301
C          7.04181        2.59201       -2.36204
C          6.19651        1.45861       -2.63619
C          6.53578        0.56193       -3.65862
C          5.69236       -0.49018       -3.92285
N          5.83699       -1.47885       -4.87138
C          6.94289       -1.62246       -5.78196
C          8.20911       -2.15945       -5.09671
C          7.95406       -3.54521       -4.51150
C          9.35154       -2.19947       -6.10734
C          4.79114       -2.36508       -4.81506
O          4.66213       -3.28684       -5.59327
C          5.03040        1.23215       -1.89268
C          4.18641        0.17503       -2.16517
C          4.48673       -0.69480       -3.20864
C          3.87028       -1.89307       -3.72760
C          2.68393       -2.49435       -3.39895
C          2.18762       -3.81324       -3.71632
C          2.74208       -4.94116       -4.31352
C          1.99378       -6.09591       -4.42441
C          1.56662       -1.82655       -2.65133
O          1.48277       -0.68993       -2.23309
N          0.53423       -2.72584       -2.58065
C         -0.70587       -2.45093       -1.90336
C         -0.79470       -3.13325       -0.52925
C          0.31787       -2.63527        0.38844
C         -2.16549       -2.86003        0.08264
C          0.87859       -3.91518       -3.18679
C          0.12415       -5.05691       -3.30141
C          0.67791       -6.17087       -3.94846
C         -0.10836       -7.36705       -4.10884
S         -1.61324       -7.54875       -3.22111
C         -1.87737       -9.07102       -3.94508
C         -2.88891      -10.06337       -3.96971
S         -4.39585      -10.39025       -3.23720
C          0.14268       -8.45875       -4.91221
C         -0.84908       -9.44269       -4.82183
C         -1.20005      -10.72569       -5.43645
C         -0.55732      -11.48255       -6.34714
C          0.78616      -11.28977       -6.85895
C          1.83120      -10.88266       -6.02922
C          3.11091      -10.73040       -6.53960
C          4.19406      -10.26784       -5.60265
F          3.98210       -9.00110       -5.19719
F          4.24467      -11.01029       -4.48440
F          5.41493      -10.29748       -6.14251
C          3.38852      -10.97799       -7.87583
C          2.35043      -11.40579       -8.69333
C          2.63162      -11.73843      -10.13460
F          3.66975      -11.05679      -10.63283
F          2.92126      -13.04378      -10.29395
F          1.58415      -11.48774      -10.93325
C          1.06925      -11.57548       -8.19667
C         -2.51216      -11.05483       -4.87888
C         -3.45429      -12.08100       -4.97792
C         -4.54481      -11.88243       -4.15710
C         -5.71538      -12.70553       -3.99653
C         -6.64363      -12.40502       -2.98985
C         -7.77155      -13.17985       -2.86920
N         -8.78052      -13.08646       -1.93272
C         -8.91961      -12.08698       -0.90345
C         -9.67280      -10.82195       -1.35652
C         -8.85819       -9.97576       -2.33171
C        -11.02405      -11.18385       -1.96753
C         -9.65412      -14.13850       -2.05526
O        -10.60454      -14.29907       -1.31852
C         -5.95172      -13.80660       -4.83029
C         -7.07969      -14.59061       -4.69622
C         -8.02264      -14.28127       -3.72218
C         -9.22788      -14.92906       -3.25746
C         -9.92523      -15.97786       -3.78995
C        -10.96213      -16.80884       -3.21225
C        -11.47258      -16.94773       -1.92775
C        -12.42091      -17.92841       -1.68105
C         -9.79601      -16.44689       -5.21030
O         -9.08161      -16.03254       -6.10103
N        -10.72293      -17.43831       -5.39244
C        -10.94806      -18.08194       -6.66017
C        -12.25138      -17.62437       -7.33287
C        -12.22205      -16.12050       -7.58858
C        -12.44317      -18.39249       -8.63730
C        -11.40379      -17.69725       -4.21885
C        -12.34529      -18.67515       -3.97346
C        -12.85771      -18.77560       -2.68675
H         31.34946       37.32081       -8.72910
H         33.15541       36.13939       -7.28995
H         33.77820       31.93113       -5.69443
H         33.00337       35.42457       -5.02456
H         37.06293       36.62107       -4.37711
H         36.19463       32.70260       -5.86528
H         31.92186       30.14596       -6.10779
H         27.71211       29.38974       -8.16932
H         25.42458       28.52057       -8.32695
H         24.71302       26.96533       -8.82725
H         27.01834       28.36851      -10.26371
H         26.58281       26.67484      -12.03802
H         25.37309       25.90685      -11.00370
H         27.06907       25.91177      -10.52561
H         24.06738       28.14110      -11.01748
H         25.32839       28.86823      -12.01345
H         24.87696       29.61566      -10.48140
H         31.17845       28.10885       -5.99560
H         30.31979       25.84144       -5.87860
H         25.07271       23.38287       -6.60709
H         24.09259       21.21814       -6.05190
H         31.17436       21.42204       -6.38185
H         30.11128       20.09586       -5.85272
H         31.05559       22.44093       -4.14171
H         29.54078       19.91610       -3.32751
H         28.84748       21.53747       -3.41100
H         30.10812       21.17610       -2.23376
H         31.94673       19.51942       -4.14740
H         32.48029       20.74441       -2.99678
H         32.90308       20.89415       -4.70250
H         27.98383       19.51729       -5.47863
H         26.91335       17.51629       -5.87502
H         25.49106       13.21917       -5.43666
H         27.52440       16.01036       -4.21310
H         31.11067       14.70563       -6.15750
H         27.39526       12.74446       -6.97215
H         23.07495       12.76991       -4.70177
H         21.26081       11.48410       -4.85597
H         19.81446        7.84686       -4.80070
H         21.11964        9.04144       -4.59994
H         20.34514       10.18673       -6.69689
H         20.90911        7.20215       -7.02432
H         22.13345        8.45040       -6.78610
H         21.16151        8.43720       -8.25781
H         17.96977        9.53505       -6.65430
H         18.40357        7.83982       -6.86971
H         18.70686        9.00384       -8.16439
H         19.12665       14.76515       -3.10880
H         17.27396       13.29257       -2.50471
H         15.52123        8.00624       -4.15485
H         13.48542        6.69323       -3.86502
H         12.87455       11.17479        0.30284
H         14.18685       12.37563        0.35313
H         13.95415       11.26311        2.49620
H         14.62733        8.65445        1.05289
H         13.07512        9.06011        1.79026
H         14.50284        8.86317        2.79827
H         16.52715       10.34388        1.13104
H         16.29831       10.65230        2.85083
H         16.22914       11.98578        1.69292
H         12.29338        9.13370       -0.54784
H         10.23448        8.23072       -0.88956
H          6.17481        6.22868       -0.27507
H          5.32245        8.53895       -0.06615
H          7.63714       11.31659        2.22287
H          9.32370        7.55015        1.07558
H          5.78856        3.88569       -1.17060
H          7.43754        0.71539       -4.23145
H          7.14722       -0.65293       -6.24702
H          6.61882       -2.32604       -6.55418
H          8.48112       -1.48025       -4.28096
H          7.64241       -4.23492       -5.29251
H          7.17138       -3.50957       -3.75651
H          8.85758       -3.93213       -4.04626
H         10.26221       -2.55810       -5.63432
H          9.54432       -1.20912       -6.51418
H          9.10534       -2.86796       -6.92915
H          4.78612        1.89512       -1.07836
H          3.29171        0.04489       -1.58292
H          3.74205       -4.92023       -4.70828
H          2.44533       -6.96113       -4.88054
H         -1.53625       -2.77335       -2.53930
H         -0.75586       -1.36564       -1.77657
H         -0.67658       -4.21389       -0.66620
H          1.29613       -2.87763       -0.02156
H          0.23618       -3.09839        1.36899
H          0.25606       -1.55589        0.50717
H         -2.95882       -3.23091       -0.56271
H         -2.30900       -1.79146        0.22598
H         -2.25293       -3.35067        1.04878
H         -0.88260       -5.10319       -2.91490
H          0.99678       -8.50769       -5.56143
H         -1.09135      -12.32877       -6.75993
H          1.64828      -10.71773       -4.97846
H          4.38490      -10.84959       -8.26853
H          0.27944      -11.91064       -8.85233
H         -3.34925      -12.93858       -5.61610
H         -6.45708      -11.58014       -2.32069
H         -7.92694      -11.82094       -0.53001
H         -9.48778      -12.55910       -0.09599
H         -9.84586      -10.23134       -0.44959
H         -8.65775      -10.52620       -3.24800
H         -7.91129       -9.67199       -1.89012
H         -9.41220       -9.07651       -2.59143
H        -10.88874      -11.69167       -2.92066
H        -11.61158      -10.28560       -2.14217
H        -11.58160      -11.84343       -1.30781
H         -5.24255      -14.04844       -5.60504
H         -7.23092      -15.42330       -5.35977
H        -11.15261      -16.29582       -1.13469
H        -12.82534      -18.03192       -0.68575
H        -10.95997      -19.16695       -6.51275
H        -10.09815      -17.81872       -7.29639
H        -13.08855      -17.84788       -6.66223
H        -11.36930      -15.85822       -8.21064
H        -12.14275      -15.56999       -6.65362
H        -13.13198      -15.80420       -8.09316
H        -13.37367      -18.09811       -9.11619
H        -12.47574      -19.46470       -8.45556
H        -11.62406      -18.18411       -9.32193
H        -12.67031      -19.35011       -4.74974
H        -13.60031      -19.52931       -2.47061
