170
d4a3.out	Energy:  -19369.0606403
C         27.14354       -4.84620        2.91579
S         25.52778       -5.01245        2.32348
C         25.24171       -3.35666        2.64192
C         24.20321       -2.40827        2.44525
S         22.60191       -2.34862        1.85487
C         27.44400       -3.58831        3.34388
C         26.34870       -2.71293        3.20757
C         26.02360       -1.29961        3.39947
C         26.73735       -0.27593        3.90938
C         28.02207       -0.34699        4.57730
C         28.94690        0.68944        4.41977
C         30.16907        0.63911        5.06543
C         31.18202        1.73801        4.88282
F         30.69748        2.79521        4.22015
F         31.64335        2.19829        6.05653
F         32.25801        1.31614        4.19523
C         30.50504       -0.42774        5.89114
C         29.57140       -1.43640        6.07244
C         29.87416       -2.61676        6.95578
F         31.01727       -2.49405        7.63580
F         28.90488       -2.83362        7.85955
F         29.97382       -3.75296        6.23796
C         28.34194       -1.40148        5.43261
C         24.66690       -1.15818        2.86829
C         23.71850       -0.14913        2.71329
C         22.53682       -0.61831        2.17208
C         21.35349        0.12384        1.87244
C         20.19964       -0.48220        1.37725
N         19.06237        0.12292        1.08185
C         18.93335        1.43239        1.23649
C         20.03014        2.19955        1.73060
C         21.26475        1.53375        2.06093
N         22.20821        2.34877        2.51606
Se        21.59572        3.99183        2.54847
N         20.03017        3.50631        1.93063
C         17.68551        2.03126        0.90148
S         17.42640        3.75248        1.02772
C         15.81956        3.54605        0.47772
C         14.66546        4.33696        0.28797
S         14.19380        5.97442        0.41589
C         16.56604        1.35079        0.44748
C         15.50044        2.20333        0.18477
C         14.09699        2.13032       -0.22769
C         13.34439        1.08375       -0.62071
C         13.80521       -0.26793       -0.87911
C         12.98945       -1.35438       -0.55609
C         13.42219       -2.64721       -0.79627
C         12.55208       -3.82721       -0.45387
F         11.44959       -3.48879        0.22621
F         12.13537       -4.47546       -1.55624
F         13.20121       -4.73456        0.29229
C         14.65943       -2.89370       -1.37692
C         15.45118       -1.80942       -1.73223
C         16.78371       -2.08355       -2.37870
F         16.65706       -2.82378       -3.49389
F         17.43690       -0.97060       -2.73192
F         17.60228       -2.77029       -1.56503
C         15.03351       -0.51106       -1.49717
C         13.60697        3.50184       -0.10431
C         12.41426        4.19430       -0.29006
C         12.54976        5.54955       -0.04604
C         11.54418        6.55989       -0.11703
C         11.84086        7.91265        0.05136
N         10.98054        8.91321        0.00819
C          9.69044        8.68783       -0.19945
C          9.22431        7.35232       -0.38367
C         10.16998        6.26496       -0.35289
N          9.62222        5.07173       -0.54476
Se         7.89235        5.25331       -0.77284
N          7.96950        6.99439       -0.59607
C          8.81659        9.81035       -0.24267
S          7.08877        9.64174       -0.42112
C          6.92240       11.34490       -0.38085
C          5.88448       12.30264       -0.37841
S          4.17666       12.35309       -0.44352
C          9.22241       11.13428       -0.16602
C          8.15771       12.01918       -0.27216
C          7.90936       13.46135       -0.23272
C          8.76229       14.50190       -0.15971
C         10.21055       14.44173       -0.24086
C         10.85324       13.57596       -1.12923
C         12.23471       13.53461       -1.18628
C         12.93763       12.59363       -2.12930
F         12.09654       11.83375       -2.84015
F         13.70087       13.25405       -3.01823
F         13.76068       11.75522       -1.47960
C         13.01471       14.35761       -0.38200
C         12.37311       15.24133        0.47207
C         13.16526       16.18613        1.33608
F         14.48083       15.95498        1.30717
F         12.99084       17.46646        0.95925
F         12.78915       16.12463        2.62461
C         10.98922       15.29550        0.54049
C          6.45373       13.58191       -0.26658
C          5.50279       14.59664       -0.24443
C          4.21040       14.10850       -0.32402
C          2.99305       14.85344       -0.30473
C          1.74239       14.23536       -0.30812
N          0.56976       14.84223       -0.27056
C          0.49352       16.16497       -0.23241
C          1.68803       16.94473       -0.24216
C          2.96530       16.27840       -0.27277
N          4.00203       17.10669       -0.27215
Se         3.42746       18.76320       -0.23278
N          1.74830       18.26531       -0.21833
C         -0.79732       16.76216       -0.16413
S         -1.01518       18.49317       -0.12980
C         -2.70843       18.27326       -0.02302
C         -3.87482       19.07162       -0.00325
S         -4.30200       20.72591       -0.02302
C         -1.99531       16.06800       -0.09179
C         -3.09087       16.91627        0.01393
C         -4.55173       16.83750        0.08553
C         -5.37598       15.77426        0.16194
C         -4.98706       14.38669        0.33748
C         -3.93777       14.02820        1.18738
C         -3.58421       12.69924        1.33664
C         -2.44370       12.30356        2.23761
F         -1.84490       13.34872        2.81989
F         -2.84888       11.49238        3.23072
F         -1.48957       11.63289        1.57238
C         -4.26763       11.69140        0.66594
C         -5.33229       12.04789       -0.14731
C         -6.13440       10.99801       -0.86928
F         -5.64503        9.76341       -0.72460
F         -7.40766       10.96165       -0.43566
F         -6.19937       11.23672       -2.19034
C         -5.69917       13.37550       -0.30762
C         -4.99573       18.22866        0.03589
C         -6.19840       18.93139        0.05377
C         -6.00804       20.29927        0.02168
C         -7.00614       21.32677        0.02015
C         -6.67967       22.67595       -0.00708
N         -7.54619       23.69061       -0.01059
C         -8.82804       23.45832        0.01281
C         -9.33356       22.13990        0.04263
C         -8.40288       21.03679        0.04662
N         -8.98042       19.84237        0.07534
Se       -10.72211       20.04617        0.09731
N        -10.61300       21.78619        0.06807
H         27.78409       -5.70530        2.91380
H         28.41577       -3.32172        3.71685
H         26.31812        0.71747        3.81465
H         28.70851        1.52644        3.78089
H         31.46133       -0.45845        6.38948
H         27.61619       -2.17726        5.62147
H         23.85195        0.88556        2.96716
H         20.19256       -1.55139        1.20598
H         16.58060        0.28150        0.35392
H         12.28326        1.25060       -0.75285
H         12.02558       -1.18440       -0.10045
H         14.99273       -3.90392       -1.55793
H         15.64439        0.31885       -1.81485
H         11.47393        3.76495       -0.58078
H         12.86567        8.21244        0.23128
H         10.25806       11.37780       -0.02397
H          8.34102       15.48833       -0.01604
H         10.26632       12.95676       -1.78888
H         14.09159       14.31407       -0.43059
H         10.51440       15.99003        1.21757
H          5.70494       15.64833       -0.16705
H          1.68500       13.15439       -0.33434
H         -2.00566       14.99552       -0.13398
H         -6.43948       15.95585        0.07675
H         -3.42037       14.79120        1.74696
H         -3.98109       10.65822        0.78581
H         -6.52978       13.62638       -0.95060
H         -7.18052       18.49814        0.08316
H         -5.63944       22.97458       -0.02754
H         -9.49511       24.30750        0.00828
