178
d4a7.out	Energy:  -13313.3450285
C         30.12174       -2.63946       -6.08016
S         28.52888       -3.06717       -5.56050
C         28.05639       -1.42525       -5.65673
C         26.91397       -0.64272       -5.35910
S         25.30894       -0.84967       -4.80488
C         30.28115       -1.30780       -6.32247
C         29.09169       -0.58869       -6.09883
C         28.61006        0.79114       -6.10364
C         29.21079        1.94837       -6.44656
C         30.50559        2.10875       -7.07857
C         30.94822        1.22788       -8.06627
C         32.18436        1.41099       -8.66546
C         32.62547        0.40700       -9.69628
F         32.87304       -0.79351       -9.13557
F         31.68451        0.19246      -10.62969
F         33.73902        0.76171      -10.34336
C         33.00717        2.47027       -8.31141
C         32.54767        3.36603       -7.35441
C         33.42080        4.52124       -6.94233
F         34.25739        4.91258       -7.91104
F         32.70931        5.60080       -6.58672
F         34.18777        4.20999       -5.88027
C         31.31545        3.19753       -6.74605
C         27.23949        0.70360       -5.59541
C         26.18671        1.56498       -5.32654
C         25.05730        0.88635       -4.88184
C         23.80909        1.44170       -4.51241
C         23.52541        2.82679       -4.52357
N         24.35750        3.81209       -4.86936
S         23.60475        5.22452       -4.72067
N         22.18433        4.67304       -4.21223
C         22.23195        3.34395       -4.13339
C         22.73056        0.63088       -4.09553
N         22.77900       -0.69934       -4.00875
S         21.36173       -1.25217       -3.50116
N         20.60258        0.15838       -3.36932
C         21.43438        1.14525       -3.71337
C         21.15236        2.53162       -3.72036
C         19.91316        3.08885       -3.33836
S         19.67293        4.82580       -3.32663
C         18.06693        4.60014       -2.76746
C         16.93870        5.38139       -2.48080
S         16.49054        7.03471       -2.43732
C         18.78027        2.39289       -2.92360
C         17.73854        3.23448       -2.57889
C         16.34743        3.13853       -2.13625
C         15.60700        2.05800       -1.82186
C         16.09460        0.69321       -1.71697
C         17.31842        0.40768       -1.10793
C         17.77288       -0.89748       -1.03102
C         19.08324       -1.20009       -0.35609
F         19.91055       -0.14881       -0.31490
F         18.90979       -1.59391        0.91902
F         19.75441       -2.19245       -0.96456
C         17.02180       -1.95093       -1.53608
C         15.78735       -1.66755       -2.10352
C         14.96273       -2.79322       -2.66864
F         15.14642       -3.94781       -2.01561
F         13.64790       -2.53634       -2.63736
F         15.26927       -3.03449       -3.95765
C         15.32004       -0.36620       -2.19112
C         15.87286        4.52052       -2.12397
C         14.70862        5.20243       -1.83026
C         14.86306        6.58462       -1.95055
C         13.89817        7.58471       -1.71496
C         12.55067        7.32887       -1.35567
N         11.99482        6.12409       -1.22546
S         10.45169        6.28717       -0.81198
N         10.39516        7.89324       -0.77669
C         11.59570        8.38619       -1.08546
C         14.22346        8.95712       -1.80754
N         15.41732        9.44403       -2.14222
S         15.36629       11.05208       -2.10297
N         13.82827       11.21420       -1.65843
C         13.27998       10.00777       -1.52198
C         11.94230        9.75964       -1.14069
C         11.06566       10.81436       -0.81541
S         11.63178       12.47511       -0.82467
C         10.09044       13.00332       -0.29095
C          9.44266       14.21184       -0.00406
S          9.80123       15.88709        0.05209
C          9.73146       10.70998       -0.42353
C          9.17595       11.93492       -0.10557
C          7.88855       12.48502        0.32057
C          6.72148       11.86856        0.58907
C          6.50491       10.43328        0.65680
C          7.41906        9.59133        1.29402
C          7.19248        8.22691        1.34572
C          8.16194        7.32835        2.06431
F          9.38709        7.85477        2.17791
F          7.75233        7.05348        3.31667
F          8.30987        6.14099        1.45263
C          6.05477        7.66339        0.78129
C          5.13259        8.50676        0.17974
C          3.88627        7.94257       -0.44882
F          3.62099        6.69074       -0.06022
F          2.79872        8.67544       -0.16183
F          3.97460        7.91528       -1.79169
C          5.34334        9.87560        0.12221
C          8.10218       13.93031        0.35423
C          7.38488       15.06551        0.67555
C          8.15688       16.22409        0.56938
C          7.76079       17.54796        0.84791
C          6.46944       17.91660        1.29750
N          5.43173       17.10417        1.49990
S          4.17237       17.96346        2.01561
N          4.87071       19.41090        2.01371
C          6.13253       19.28939        1.60437
C          8.66073       18.63120        0.71428
N          9.91987       18.51171        0.29599
S         10.61732       19.95800        0.28361
N          9.36526       20.81454        0.81717
C          8.32575       20.00199        1.02499
C          7.03966       20.36705        1.48967
C          6.66678       21.68769        1.81989
S          5.04240       22.05960        2.36626
C          5.46958       23.71403        2.51317
C          4.88919       24.91378        2.96086
S          3.39195       25.47329        3.57759
C          7.47848       22.81736        1.76294
C          6.80859       23.96987        2.13273
C          7.09521       25.39159        2.32997
C          8.23122       26.08498        2.12328
C          9.43832       25.56923        1.49925
C          9.37569       24.76808        0.35734
C         10.53547       24.26924       -0.21039
C         10.46113       23.42585       -1.45427
F          9.27486       22.82783       -1.61563
F         10.66949       24.15633       -2.56558
F         11.38709       22.45262       -1.46932
C         11.78226       24.56295        0.32636
C         11.84267       25.39202        1.43768
C         13.18202       25.71119        2.04640
F         14.17234       25.72034        1.14509
F         13.20128       26.90588        2.65368
F         13.53013       24.80735        2.98213
C         10.69094       25.89847        2.01807
C          5.85788       25.93867        2.87931
C          5.38020       27.16332        3.31340
C          4.05577       27.09091        3.73265
C          3.25439       28.14199        4.24481
C          1.91925       27.92311        4.64122
N          1.28246       26.75262        4.58122
S         -0.21543       26.94506        5.13056
N         -0.15088       28.50543        5.47446
C          1.07056       28.97282        5.17286
C          3.70310       29.47193        4.40611
N          4.91581       29.94651        4.11120
S          4.96561       31.51439        4.46216
N          3.47329       31.69337        5.00430
C          2.83828       30.51366        4.94042
C          1.52467       30.27572        5.32584
H         30.85765       -3.41239       -6.17772
H         31.22052       -0.88460       -6.62752
H         28.68223        2.86722       -6.22845
H         30.31044        0.41866       -8.38664
H         33.96896        2.60674       -8.78023
H         30.98212        3.90627       -6.00275
H         26.19407        2.63410       -5.42785
H         18.77386        1.31973       -2.90906
H         14.54951        2.19952       -1.64259
H         17.90177        1.20818       -0.68107
H         17.38279       -2.96582       -1.47627
H         14.35815       -0.16934       -2.64032
H         13.76908        4.77047       -1.54018
H          9.24359        9.75429       -0.40019
H          5.84804       12.48564        0.75366
H          8.29340       10.01208        1.76511
H          5.88799        6.59838        0.82171
H          4.61001       10.51108       -0.35160
H          6.35583       15.10823        0.98054
H          8.50824       22.73564        1.47226
H          8.27347       27.11004        2.46659
H          8.41866       24.55239       -0.09105
H         12.68232       24.16701       -0.11744
H         10.76222       26.53842        2.88478
H          5.92776       28.08676        3.34725
H          0.89918       31.05686        5.71952
