158
d4a8.out	Energy:  -10545.3214742
C         15.55148      -10.69776       -8.17790
S         15.75355       -9.06123       -7.65419
C         15.13052       -9.47681       -6.11719
C         14.78646       -8.82136       -4.90398
S         14.86674       -7.26156       -4.21056
C         15.04059      -11.51918       -7.21974
C         14.80422      -10.83243       -6.01182
C         14.23709      -11.07811       -4.68605
C         13.79002      -12.20986       -4.10667
C         13.91781      -13.56040       -4.61991
C         15.07715      -13.98107       -5.27262
C         15.18669      -15.28215       -5.73735
C         16.44849      -15.66812       -6.46135
F         17.54937      -15.36660       -5.75315
F         16.51968      -16.97030       -6.75131
F         16.56579      -15.00721       -7.62955
C         14.16054      -16.19870       -5.56136
C         13.02186      -15.78608       -4.88114
C         11.88819      -16.75691       -4.68395
F         12.29966      -18.02911       -4.61882
F         11.19565      -16.51695       -3.56111
F         11.00006      -16.69594       -5.69403
C         12.89641      -14.48999       -4.41055
C         14.21702       -9.76219       -4.04286
C         13.84438       -9.21567       -2.81380
C         14.12562       -7.86426       -2.73814
C         13.88997       -6.98601       -1.64534
C         13.24184       -7.25290       -0.45639
C         13.19696       -6.16274        0.41165
C         13.81370       -5.03570       -0.09265
S         14.45250       -5.34133       -1.68194
C         13.97139       -3.76477        0.52280
S         14.71555       -2.44310       -0.35682
C         14.53520       -1.42564        1.00421
C         14.90844       -0.11666        1.39042
S         15.69743        1.24612        0.72639
C         13.60466       -3.39747        1.80420
C         13.90424       -2.06128        2.08493
C         13.84576       -1.12244        3.20910
C         13.34100       -1.25120        4.45227
C         12.56394       -2.35887        4.97339
C         12.71585       -2.74815        6.30732
C         11.98335       -3.80645        6.81444
C         12.13789       -4.23217        8.25035
F         13.16312       -3.63438        8.86910
F         11.03953       -3.95223        8.97401
F         12.33653       -5.55485        8.36552
C         11.07308       -4.49730        6.02320
C         10.89705       -4.08318        4.71145
C          9.94657       -4.81567        3.80378
F          9.07699       -5.59085        4.45759
F          9.22923       -3.98612        3.03304
F         10.61654       -5.62550        2.95615
C         11.62197       -3.02400        4.18809
C         14.52685        0.07824        2.72296
C         14.87724        1.33895        3.20529
C         15.53035        2.09974        2.25181
C         16.06678        3.40736        2.39239
C         16.05335        4.22979        3.50124
C         16.70456        5.44583        3.29820
C         17.22926        5.58275        2.03084
S         16.90032        4.16952        1.06824
C         17.95498        6.66711        1.47613
S         18.34167        8.08781        2.43134
C         19.14580        8.78042        1.08656
C         19.91212        9.93419        0.79463
S         20.46471       11.35256        1.57957
C         18.43446        6.76192        0.18480
C         19.09415        7.96754       -0.05635
C         19.83354        8.62427       -1.13620
C         20.06683        8.23614       -2.40464
C         19.49839        7.07619       -3.06836
C         18.15993        6.72237       -2.89280
C         17.64502        5.59848       -3.51823
C         16.19555        5.24937       -3.30699
F         15.78615        5.51654       -2.05648
F         15.38855        5.95268       -4.12349
F         15.93149        3.95741       -3.53088
C         18.43234        4.81456       -4.35021
C         19.75110        5.19547       -4.55787
C         20.63602        4.36261       -5.44688
F         19.95016        3.66743       -6.36137
F         21.53101        5.10457       -6.11602
F         21.34703        3.46477       -4.73924
C         20.28316        6.31145       -3.93291
C         20.35214        9.85046       -0.53208
C         21.13138       10.94102       -0.91335
C         21.29967       11.84874        0.11492
C         22.05244       13.04997        0.09034
C         22.29203       13.93818        1.11700
C         23.09992       15.01301        0.74871
C         23.49435       14.97409       -0.57343
S         22.84569       13.56914       -1.37085
C         24.31871       15.89494       -1.27404
S         24.71927       15.62744       -2.96050
C         25.65583       17.05702       -2.97461
C         26.38822       17.82625       -3.91214
S         26.83468       17.76866       -5.56189
C         24.90298       17.04489       -0.77704
C         25.68464       17.70378       -1.73007
C         26.48199       18.92735       -1.85729
C         26.81324       19.86908       -0.95182
C         26.57523       19.82629        0.47811
C         26.69947       18.63825        1.19972
C         26.46507       18.62077        2.56515
C         26.53495       17.30182        3.28593
F         27.56193       16.54460        2.87524
F         26.64636       17.42494        4.61133
F         25.42126       16.57176        3.06287
C         26.11999       19.77595        3.25191
C         26.04152       20.96488        2.53821
C         25.66354       22.23043        3.26090
F         26.08670       22.24651        4.53099
F         26.16123       23.32753        2.67342
F         24.32832       22.39779        3.30335
C         26.26525       20.99823        1.17218
C         26.87081       18.96864       -3.26666
C         27.60974       19.79636       -4.11486
C         27.68400       19.29501       -5.39929
C         28.34201       19.87528       -6.52370
C         29.05363       21.05024       -6.57949
C         29.56893       21.32174       -7.85855
C         29.25291       20.36254       -8.76909
S         28.31570       19.09975       -8.08230
H         15.83063      -10.95619       -9.17963
H         14.83564      -12.55879       -7.39820
H         13.27891      -12.12052       -3.15690
H         15.90395      -13.29758       -5.38930
H         14.25094      -17.21000       -5.92557
H         11.99991      -14.19326       -3.88690
H         13.39300       -9.76186       -2.00656
H         12.80740       -8.20849       -0.22710
H         12.71745       -6.19193        1.37274
H         13.16943       -4.09777        2.49200
H         13.54086       -0.45420        5.15675
H         13.42271       -2.23104        6.93863
H         10.51083       -5.32557        6.42532
H         11.43751       -2.69241        3.17815
H         14.68381        1.69557        4.19990
H         15.58671        3.95470        4.42931
H         16.79767        6.21210        4.04755
H         18.30627        5.96042       -0.51929
H         20.75826        8.82340       -2.99464
H         17.52037        7.33867       -2.28010
H         18.02700        3.93850       -4.83169
H         21.31393        6.58315       -4.10527
H         21.57512       11.08619       -1.88195
H         21.89311       13.79843        2.10608
H         23.39854       15.78822        1.42975
H         24.73423       17.37816        0.22964
H         27.30391       20.76283       -1.31468
H         27.00754       17.73575        0.69506
H         25.93826       19.75599        4.31503
H         26.18943       21.93376        0.63840
H         28.06994       20.72232       -3.82415
H         29.20067       21.69361       -5.73169
H         30.15104       22.19482       -8.09307
H         29.51371       20.31708       -9.80748
