214
d5a1.out	Energy:   -9527.6213422
C         -5.00451       27.50083       -5.53151
S         -6.21404       26.99943       -6.66310
C         -6.82861       25.79345       -5.54765
C         -7.87249       24.89401       -5.72246
O         -8.64711       24.68461       -6.82112
C         -8.97626       25.73014       -7.71263
C        -10.17774       26.56232       -7.23888
C         -9.84129       27.38840       -6.00046
C        -10.63526       27.47018       -8.37730
C         -8.11895       24.01468       -4.64839
C         -9.12483       23.01857       -4.63421
C         -5.04673       26.81022       -4.37804
C         -6.07458       25.82138       -4.35022
C         -6.32615       24.94802       -3.27628
O         -5.52802       25.14159       -2.19328
C         -5.46756       24.18427       -1.15687
C         -4.72324       22.90626       -1.56605
C         -3.24384       23.20984       -1.78595
C         -4.92310       21.82939       -0.50514
C         -7.36377       24.04172       -3.44887
S         -7.94720       22.80859       -2.34586
C         -9.16320       22.28426       -3.48505
C        -10.04031       21.20391       -3.13471
C        -11.12132       20.80728       -3.90960
C        -11.96647       19.75931       -3.55119
C         -9.83230       20.46919       -1.94086
N         -8.86519       20.65620       -1.04568
S         -9.02468       19.57351        0.13388
N        -10.32798       18.81556       -0.43070
C        -10.69767       19.38312       -1.57656
C        -11.79858       19.01717       -2.39030
C        -12.66605       17.94366       -1.99564
S        -12.36564       17.10786       -0.49517
C        -13.75830       16.06264       -0.73069
C        -14.23892       15.06685        0.10932
O        -13.75622       14.64318        1.30318
C        -12.49146       15.05694        1.77738
C        -11.32661       14.38213        1.04051
C        -10.01463       15.06088        1.41876
C        -11.29915       12.89011        1.36032
C        -15.42527       14.41686       -0.29752
C        -16.11988       13.40654        0.40444
C        -13.76737       17.45212       -2.63596
C        -14.40693       16.38819       -1.95473
C        -15.56752       15.71292       -2.36904
O        -16.21768       16.03964       -3.53441
C        -15.59485       15.59167       -4.72907
C        -15.86020       14.10799       -5.01654
C        -17.34333       13.87997       -5.29069
C        -15.00794       13.64698       -6.19530
C        -16.06571       14.74761       -1.51348
S        -17.51783       13.81540       -1.74413
C        -17.25775       12.98171       -0.22624
C        -18.20677       12.00473        0.22550
C        -18.05139       11.26291        1.38944
C        -19.00450       10.35523        1.84444
C        -19.39828       11.76395       -0.50372
N        -19.76329       12.33414       -1.64905
S        -21.20200       11.76569       -2.08538
N        -21.43610       10.76612       -0.84414
C        -20.38566       10.83527       -0.02942
C        -20.19771       10.11543        1.17642
C        -21.21701        9.22988        1.66069
S        -22.70526        9.05845        0.76379
C        -23.37684        7.98080        1.97605
C        -24.63521        7.39705        2.02442
O        -25.64536        7.46571        1.12340
C        -25.65655        8.45883        0.11938
C        -25.93863        9.86087        0.67554
C        -25.69380       10.90558       -0.40769
C        -27.36500        9.93219        1.21382
C        -24.91126        6.59403        3.15137
C        -26.15420        5.97183        3.41615
C        -21.22460        8.47274        2.79707
C        -22.42648        7.75764        3.00455
C        -22.68578        6.92125        4.11132
O        -21.67934        6.84829        5.02556
C        -21.46936        5.68327        5.79684
C        -20.67804        4.60175        5.04541
C        -20.24664        3.52200        6.03433
C        -21.49367        3.98845        3.91031
C        -23.95132        6.35859        4.16811
S        -24.64546        5.34622        5.41642
C        -26.19315        5.27611        4.58677
C        -27.29262        4.57613        5.18385
C        -27.15794        3.86610        6.36706
C        -28.22143        3.21738        6.98668
C        -28.59401        4.59777        4.61343
N        -28.97244        5.20408        3.49062
S        -30.54533        4.96446        3.26534
N        -30.83228        4.08305        4.57926
C        -29.69767        3.93114        5.25965
C        -29.51132        3.22754        6.47947
C        -30.60105        2.58851        7.16144
S        -30.32635        1.79126        8.69870
C        -32.02096        1.35424        8.84403
C        -32.63610        0.63833        9.85975
O        -32.08879        0.10312       10.97685
C        -30.69341        0.15250       11.19462
C        -30.39872       -0.57760       12.50716
C        -28.89267       -0.74252       12.68216
C        -31.00757        0.18268       13.68174
C        -34.02758        0.43349        9.73262
C        -34.87267       -0.24617       10.63982
C        -31.91018        2.51908        6.79198
C        -32.74392        1.84738        7.72108
C        -34.12960        1.65227        7.60974
O        -34.84495        2.08853        6.52391
C        -35.05239        3.49097        6.43894
C        -36.18782        3.97304        7.35215
C        -36.22494        5.49827        7.37347
C        -37.52220        3.39909        6.88614
C        -34.74389        0.94176        8.62710
S        -36.43821        0.56186        8.73496
C        -36.18500       -0.26457       10.25719
C        -37.30341       -0.85133       10.94813
C        -37.18766       -1.54541       12.13949
C        -38.29350       -2.10361       12.79814
C        -38.61470       -0.73183       10.41969
N        -38.97056       -0.11188        9.29799
S        -40.56301       -0.23985        9.11642
N        -40.88608       -1.08316       10.44494
C        -39.74449       -1.30651       11.10037
C        -39.56842       -2.00065       12.30693
H         -4.33705       28.28973       -5.81706
H         -9.23757       25.21525       -8.64260
H         -8.12336       26.38427       -7.91088
H        -10.98549       25.86588       -6.98773
H         -9.01217       28.06185       -6.20787
H         -9.56803       26.74807       -5.16462
H        -10.70220       27.98316       -5.70358
H         -9.83821       28.15691       -8.65364
H        -11.50008       28.05269       -8.07018
H        -10.90723       26.88689       -9.25384
H         -9.77473       22.86573       -5.47549
H         -4.38416       26.96890       -3.54774
H         -6.46932       23.94377       -0.78661
H         -4.91866       24.69198       -0.35800
H         -5.14947       22.55200       -2.51035
H         -2.77445       23.50640       -0.85004
H         -3.12929       24.02026       -2.50224
H         -2.72681       22.33350       -2.16933
H         -4.56323       22.17676        0.46098
H         -4.37357       20.93113       -0.77488
H         -5.97706       21.57657       -0.41637
H        -11.32589       21.33621       -4.82720
H        -12.78924       19.52288       -4.20768
H        -12.48847       14.75143        2.82815
H        -12.39450       16.14616        1.73613
H        -11.48764       14.50402       -0.03545
H         -9.85523       15.00688        2.49353
H        -10.02899       16.10619        1.11921
H         -9.18173       14.56996        0.92188
H        -11.07807       12.73233        2.41405
H        -10.53822       12.38673        0.76882
H        -12.26430       12.44065        1.13815
H        -15.77592       13.03591        1.35199
H        -14.14541       17.84734       -3.56123
H        -14.51231       15.76957       -4.68499
H        -16.02503       16.20842       -5.52319
H        -15.57344       13.53761       -4.12572
H        -17.63397       14.36799       -6.21891
H        -17.93966       14.28962       -4.47988
H        -17.55712       12.81745       -5.37375
H        -15.24912       14.22418       -7.08567
H        -15.19607       12.59720       -6.40577
H        -13.94810       13.77009       -5.98190
H        -17.15711       11.39720        1.97730
H        -18.80760        9.82776        2.76457
H        -26.46925        8.15429       -0.54660
H        -24.72181        8.45213       -0.45070
H        -25.24506       10.04409        1.50288
H        -24.65592       10.87908       -0.73156
H        -25.91200       11.89976       -0.02607
H        -26.33332       10.71829       -1.26756
H        -27.53401        9.13758        1.93700
H        -28.08195        9.81969        0.40302
H        -27.54167       10.88804        1.70119
H        -26.99646        6.05190        2.75531
H        -20.41247        8.41965        3.49778
H        -22.40841        5.26605        6.17077
H        -20.88302        6.03234        6.65256
H        -19.78669        5.07695        4.62086
H        -21.11964        3.05158        6.48134
H        -19.63725        3.94467        6.82967
H        -19.66579        2.75636        5.52634
H        -22.41522        3.55677        4.29568
H        -20.92212        3.20154        3.42322
H        -21.74697        4.73534        3.16124
H        -26.18397        3.82187        6.83264
H        -28.03683        2.68945        7.91114
H        -30.35141        1.19246       11.26447
H        -30.16509       -0.33754       10.36738
H        -30.86630       -1.56556       12.44592
H        -28.40626        0.23015       12.70708
H        -28.46792       -1.31800       11.86314
H        -28.67751       -1.25899       13.61401
H        -30.53241        1.15563       13.78900
H        -32.07133        0.33286       13.51856
H        -30.87098       -0.37247       14.60648
H        -34.49485       -0.69334       11.54034
H        -32.26466        2.92519        5.86295
H        -35.30766        3.67764        5.39243
H        -34.12917        4.03117        6.68181
H        -35.98104        3.60833        8.36494
H        -36.38950        5.88665        6.37050
H        -35.28906        5.90531        7.75071
H        -37.03305        5.84488        8.01280
H        -37.79360        3.81600        5.91832
H        -37.45112        2.31884        6.79282
H        -38.30859        3.63249        7.59945
H        -36.21291       -1.66716       12.58474
H        -38.12308       -2.63134       13.72498
H        -40.41896       -2.42851       12.81136
