202
d5a6.out	Energy:  -10810.5613857
C         -2.65077      -12.03012        3.57732
S         -3.92906      -12.31399        4.71273
C         -4.77862      -10.91096        4.13128
C         -5.99341      -10.44256        4.60114
O         -6.62674      -11.06185        5.64556
C         -7.81555      -11.77137        5.31527
C         -8.59815      -12.04641        6.59979
C         -9.07827      -10.74009        7.22712
C         -9.77393      -12.97218        6.30311
C         -6.49764       -9.28257        3.99249
C         -7.70067       -8.62129        4.32981
C         -2.84722      -10.94345        2.80257
C         -4.06796      -10.26960        3.09623
C         -4.57420       -9.11274        2.46920
O         -3.80545       -8.64618        1.45254
C         -3.94642       -7.32494        0.97477
C         -3.46720       -6.27250        1.98261
C         -1.97531       -6.44700        2.25209
C         -3.77815       -4.87637        1.45518
C         -5.79410       -8.63950        2.93419
S         -6.69967       -7.23456        2.38392
C         -7.95599       -7.51508        3.56837
C         -9.10103       -6.69474        3.66921
C        -10.24014       -6.95182        4.43277
N        -10.60977       -7.94220        5.24591
S        -12.08873       -7.60443        5.79302
N        -12.34111       -6.20518        5.03512
C        -11.25885       -5.93266        4.30725
C        -10.89433       -4.88419        3.45853
S         -9.30566       -5.18964        2.82350
C        -11.66351       -3.74503        3.14444
S        -11.02720       -2.41589        2.19158
C        -12.53906       -1.55926        2.33653
C        -12.80948       -0.31103        1.80707
O        -11.82003        0.34493        1.14179
C        -12.10354        0.90182       -0.13428
C        -11.30434        0.18546       -1.23460
C         -9.81053        0.25322       -0.93328
C        -11.76160       -1.26328       -1.38093
C        -14.08735        0.22464        2.07545
C        -14.56296        1.51266        1.74461
C        -12.96239       -3.52753        3.53543
C        -13.48057       -2.29872        3.08621
C        -14.78863       -1.80081        3.29404
O        -15.59399       -2.63907        3.97757
C        -16.92194       -2.28402        4.30459
C        -17.55556       -3.46239        5.05333
C        -17.59643       -4.69833        4.15868
C        -16.78738       -3.74854        6.34083
C        -15.06274       -0.54421        2.78016
S        -16.56731        0.35792        2.92311
C        -15.85974        1.74140        2.12602
C        -16.64458        2.89942        1.95865
C        -17.98768        3.05236        2.29861
N        -18.89328        2.24276        2.84350
S        -20.27454        3.06004        2.96608
N        -19.80448        4.47312        2.33734
C        -18.51854        4.36231        1.99970
C        -17.57542        5.22816        1.44064
S        -16.05623        4.39383        1.27978
C        -17.78807        6.57663        1.08556
S        -16.51360        7.65438        0.56288
C        -17.65465        8.97073        0.45880
C        -17.28115       10.24867        0.09020
O        -15.95766       10.50053       -0.13881
C        -15.58160       11.01847       -1.40561
C        -15.48787        9.92990       -2.48655
C        -16.86425        9.58831       -3.05347
C        -14.55717       10.39536       -3.60390
C        -18.29657       11.22769        0.07622
C        -18.22318       12.61866       -0.15229
C        -19.01118        7.19949        1.14579
C        -18.98074        8.56616        0.79377
C        -20.00489        9.53416        0.72222
O        -21.34145        9.39343        0.90343
C        -21.90453        8.32077        1.63084
C        -21.48065        8.30670        3.10531
C        -22.03516        9.54084        3.81261
C        -21.95644        7.01982        3.77248
C        -19.61888       10.82246        0.37549
S        -20.74652       12.15006        0.32231
C        -19.43918       13.25134       -0.05422
C        -19.71930       14.62515       -0.20814
C        -20.95638       15.25618       -0.08551
N        -22.18618       14.82450        0.18697
S        -23.16940       16.09660        0.17565
N        -22.10326       17.25821       -0.17171
C        -20.90490       16.68576       -0.29592
C        -19.62244       17.15739       -0.58210
S        -18.50949       15.82073       -0.58603
C        -19.24545       18.49369       -0.83251
S        -17.59746       18.95315       -1.19962
C        -18.07836       20.62382       -1.32213
C        -17.17812       21.64338       -1.57108
O        -15.87480       21.31424       -1.81247
C        -14.87573       21.86314       -0.96584
C        -14.77833       21.13880        0.38644
C        -13.38684       21.34737        0.97954
C        -15.84501       21.62982        1.36319
C        -17.70028       22.95042       -1.63580
C        -17.06106       24.17329       -1.94199
C        -20.10232       19.56728       -0.81611
C        -19.47345       20.80040       -1.09964
C        -19.99023       22.11116       -1.14547
O        -21.26395       22.51115       -0.92679
C        -22.35758       21.66058       -1.21879
C        -23.55400       22.53509       -1.61747
C        -23.94072       23.45761       -0.46521
C        -23.22607       23.34203       -2.87107
C        -19.08565       23.13013       -1.40896
S        -19.55703       24.80199       -1.54037
C        -17.91051       25.24986       -1.92993
C        -17.54566       26.59146       -2.19794
C        -16.27339       27.08517       -2.47807
N        -15.06037       26.54027       -2.57865
S        -14.02189       27.71982       -2.93127
N        -15.02294       28.97215       -2.97489
C        -16.25699       28.52133       -2.70932
C        -17.50129       29.09390       -2.60205
S        -18.67692       27.90465       -2.22646
H         -1.82018      -12.70822        3.56376
H         -7.54049      -12.71999        4.82994
H         -8.42928      -11.19347        4.61361
H         -7.91454      -12.54001        7.29768
H         -9.77725      -10.22985        6.56622
H         -8.23005      -10.08681        7.41601
H         -9.57942      -10.93711        8.17203
H        -10.45464      -12.50366        5.59528
H        -10.32241      -13.18597        7.21695
H         -9.43015      -13.91321        5.87999
H         -8.35370       -8.92750        5.12464
H         -2.16894      -10.60802        2.04006
H         -4.97863       -7.12259        0.66883
H         -3.31342       -7.29788        0.08297
H         -4.01082       -6.42471        2.92114
H         -1.40219       -6.25275        1.34785
H         -1.76745       -7.46249        2.58138
H         -1.64518       -5.75813        3.02564
H         -4.84877       -4.75143        1.31168
H         -3.27834       -4.71042        0.50341
H         -3.43481       -4.12370        2.15993
H        -11.81233        1.95854       -0.10141
H        -13.17206        0.83223       -0.35947
H        -11.51105        0.72019       -2.16906
H         -9.60786       -0.22324        0.02232
H         -9.47665        1.28688       -0.88300
H         -9.24361       -0.25809       -1.70707
H        -11.54118       -1.81891       -0.47323
H        -11.24117       -1.74102       -2.20721
H        -12.83201       -1.31484       -1.57192
H        -13.97016        2.27298        1.26864
H        -13.51469       -4.23425        4.12585
H        -17.49558       -2.07156        3.39402
H        -16.93026       -1.39087        4.94132
H        -18.57989       -3.16580        5.30380
H        -16.58699       -4.98095        3.87241
H        -18.17115       -4.50029        3.25666
H        -18.05593       -5.53118        4.68499
H        -15.75923       -4.01204        6.10832
H        -17.24592       -4.57452        6.87867
H        -16.78405       -2.87432        6.98786
H        -14.59449       11.45614       -1.23401
H        -16.26863       11.80461       -1.73449
H        -15.06424        9.03622       -2.01596
H        -17.30906       10.46511       -3.52119
H        -17.53639        9.23782       -2.27417
H        -16.77724        8.80602       -3.80398
H        -14.93238       11.31375       -4.05067
H        -14.49305        9.63761       -4.38056
H        -13.55617       10.58105       -3.22236
H        -17.31322       13.15989       -0.34261
H        -19.87342        6.64191        1.45332
H        -21.68882        7.36382        1.14391
H        -22.98146        8.50079        1.56037
H        -20.38694        8.34334        3.15065
H        -23.12139        9.49590        3.85638
H        -21.75013       10.44307        3.27601
H        -21.65013        9.60419        4.82748
H        -23.03654        6.92330        3.68485
H        -21.69663        7.02973        4.82805
H        -21.49032        6.15040        3.31380
H        -15.03675       22.93294       -0.80026
H        -13.94792       21.72596       -1.52729
H        -14.93159       20.07058        0.19896
H        -13.30880       20.84709        1.94150
H        -13.19425       22.40803        1.12732
H        -12.62076       20.94578        0.32087
H        -15.72474       22.69556        1.55037
H        -15.75660       21.10310        2.31062
H        -16.84611       21.46136        0.97441
H        -16.02357       24.28146       -2.20057
H        -21.14082       19.42869       -0.58375
H        -22.61482       21.06872       -0.33050
H        -22.10223       20.98245       -2.04062
H        -24.38694       21.85646       -1.83286
H        -23.10250       24.10196       -0.21449
H        -24.21113       22.87950        0.41546
H        -24.78801       24.07833       -0.74513
H        -24.07943       23.94793       -3.16427
H        -22.97029       22.68293       -3.69823
H        -22.38347       24.00119       -2.67667
H        -17.78470       30.11870       -2.71911
