190
d6a4.out	Energy:   -9649.2507166
C          9.11797      -12.49665        3.97338
S          8.50166      -10.89383        4.19578
C          9.94320      -10.24858        3.52780
C         10.51923       -8.97613        3.30396
S         10.12332       -7.32049        3.48549
C         10.35797      -12.53413        3.41050
C         10.84602      -11.24388        3.13197
C         12.05747      -10.60454        2.62337
C         13.19909      -11.13286        2.14178
C         13.46568      -12.53250        1.85686
C         12.51408      -13.34211        1.23532
C         12.79556      -14.66515        0.95282
C         14.02748      -15.20402        1.28718
C         14.98783      -14.40414        1.88577
C         14.71596      -13.07710        2.15546
C         11.80649       -9.17095        2.77844
C         12.46691       -7.97752        2.52448
C         11.70374       -6.86484        2.85409
C         12.03840       -5.48863        2.73842
C         11.09854       -4.49831        3.09235
N          9.86849       -4.72235        3.55571
S          9.13711       -3.31628        3.82565
N         10.33972       -2.35103        3.36988
C         11.37746       -3.09168        2.98222
C         13.28649       -4.99428        2.27079
N         14.24585       -5.87957        1.93135
C         15.39654       -5.46907        1.47164
C         16.41509       -6.50492        1.12484
C         15.65314       -4.08021        1.30971
C         16.93971       -3.57921        0.74230
N         14.75503       -3.19834        1.65727
C         13.56286       -3.59009        2.15054
C         12.61290       -2.59533        2.51344
C         12.82479       -1.19630        2.41501
S         11.50803       -0.09057        2.79307
C         12.51006        1.24578        2.40620
C         12.39443        2.63794        2.28018
S         11.22726        3.87070        2.52376
C         13.97916       -0.51792        2.03456
C         13.82193        0.85799        2.04158
C         14.58630        2.05337        1.68830
C         15.87339        2.20538        1.31964
C         16.92308        1.20280        1.34490
C         17.91029        1.20311        0.35725
C         18.93672        0.27931        0.38658
C         19.01303       -0.64369        1.41733
C         18.05599       -0.63467        2.41996
C         17.01872        0.27679        2.38525
C         13.62530        3.14705        1.80972
C         13.60609        4.51788        1.63388
C         12.37678        5.08331        1.96549
C         11.98809        6.44440        1.91107
C         10.73437        6.84573        2.42217
N          9.83476        6.04314        2.98832
S          8.55815        6.91193        3.44116
N          9.07982        8.34885        2.93973
C         10.28700        8.21251        2.39219
C         12.78564        7.49391        1.37503
N         13.98893        7.19353        0.84890
C         14.77847        8.14162        0.41999
C         16.08613        7.73789       -0.17823
C         14.39765        9.50475        0.54574
C         15.33747       10.61610        0.21757
N         13.20210        9.82271        0.96682
C         12.34528        8.85957        1.35971
C         11.05844        9.24730        1.82012
C         10.54537       10.56811        1.75245
S          9.17364       10.99341        2.76281
C          9.19348       12.58170        2.12823
C          8.44140       13.75390        2.27111
S          7.14171       14.36030        3.22146
C         10.95371       11.62953        0.94711
C         10.19138       12.77275        1.13855
C         10.03395       14.11933        0.58441
C         10.59667       14.75303       -0.46293
C         11.69215       14.34229       -1.32138
C         12.84816       13.73788       -0.82891
C         13.89523       13.44175       -1.68154
C         13.79867       13.71257       -3.03632
C         12.65337       14.31001       -3.53746
C         11.61983       14.64099       -2.68493
C          8.93065       14.70237        1.34921
C          8.25303       15.90563        1.41389
C          7.24848       15.89779        2.38042
C          6.37258       16.95388        2.71538
C          6.38244       18.22221        2.08528
N          7.19795       18.61351        1.10719
S          6.85389       20.13420        0.70423
N          5.65316       20.37888        1.74565
C          5.46069       19.27380        2.46468
C          5.40867       16.79218        3.74100
N          5.35492       15.61075        4.37663
C          4.48802       15.41195        5.33497
C          4.48023       14.07726        5.99860
C          3.59115       16.45151        5.71658
C          2.59094       16.27216        6.80718
N          3.62632       17.60744        5.10718
C          4.50806       17.82811        4.11803
C          4.49986       19.09587        3.48866
C          3.58326       20.09481        3.88886
S          2.46966       19.80659        5.21223
C          1.83763       21.39492        5.02041
C          0.82125       22.19243        5.56899
S         -0.36588       22.10269        6.80191
C          3.44148       21.36633        3.34144
C          2.47043       22.11710        3.98184
C          1.83934       23.43136        3.86078
C          2.08360       24.44072        3.00317
C          3.16938       24.51410        2.03870
C          4.46867       24.13034        2.37287
C          5.48402       24.20162        1.43870
C          5.22261       24.66008        0.15779
C          3.94287       25.07322       -0.17657
C          2.92739       25.01359        0.75804
C          0.78891       23.42202        4.87601
C         -0.19303       24.27516        5.34911
C         -0.92296       23.72287        6.39646
C         -2.00195       24.29740        7.12228
C         -2.61040       23.57317        8.17190
N         -2.26414       22.35154        8.57586
S         -3.21633       21.91320        9.79576
N         -4.11798       23.23523        9.88434
C         -3.71085       24.10196        8.94588
C         -2.54295       25.58604        6.87444
N         -2.02736       26.35628        5.89272
C         -2.52490       27.54081        5.66326
C         -1.91197       28.34717        4.56564
C         -3.61676       28.04276        6.43731
C         -4.19737       29.39442        6.18395
N         -4.13902       27.32921        7.39215
C         -3.63953       26.09428        7.65341
C         -4.22384       25.36342        8.68302
H          8.51120      -13.32567        4.27971
H         10.88999      -13.44902        3.22296
H         14.01833      -10.45092        1.94728
H         11.56552      -12.91435        0.94729
H         12.05185      -15.27951        0.46616
H         14.24265      -16.24009        1.07180
H         15.95405      -14.81696        2.13689
H         15.46592      -12.45442        2.62222
H         13.45632       -7.87277        2.12332
H         16.01982       -7.49327        1.34095
H         17.32577       -6.34886        1.70124
H         16.67092       -6.44493        0.06786
H         17.77502       -3.88314        1.37170
H         16.91769       -2.49511        0.67949
H         17.10011       -3.99417       -0.25173
H         14.86639       -1.05397        1.75751
H         16.17687        3.18803        0.97819
H         17.85555        1.92524       -0.44501
H         19.68656        0.28306       -0.39115
H         19.82137       -1.35952        1.44410
H         18.12032       -1.34013        3.23548
H         16.29286        0.30174        3.18298
H         14.41695        5.12523        1.28039
H         16.13515        6.65514       -0.25028
H         16.91059        8.09149        0.44015
H         16.19926        8.17069       -1.17079
H         16.28317       10.47994        0.73975
H         14.89065       11.55884        0.51828
H         15.54187       10.63353       -0.85269
H         11.76207       11.51721        0.24971
H         10.15302       15.70507       -0.73324
H         12.93393       13.54675        0.23001
H         14.80217       13.00780       -1.28957
H         14.61827       13.47175       -3.69732
H         12.57520       14.53186       -4.59183
H         10.73301       15.12218       -3.07232
H          8.44200       16.77719        0.81506
H          5.24030       13.44800        5.54510
H          3.50507       13.60520        5.88875
H          4.68415       14.18244        7.06318
H          1.91242       15.45461        6.56816
H          2.02339       17.19043        6.92584
H          3.09084       16.03057        7.74398
H          4.03680       21.67920        2.50470
H          1.39816       25.27986        3.00872
H          4.67954       23.80222        3.37918
H          6.48406       23.89755        1.71073
H          6.01536       24.70704       -0.57415
H          3.73776       25.44574       -1.16977
H          1.92862       25.33099        0.49359
H         -0.41087       25.26034        4.98310
H         -1.09731       27.78917        4.11293
H         -1.52776       29.28863        4.95579
H         -2.65552       28.57724        3.80368
H         -3.43838       30.16429        6.31535
H         -5.01218       29.56929        6.88038
H         -4.57303       29.46130        5.16395
H         -5.04339       25.77458        9.24635
