194
d6a5.out	Energy:   -9651.5830035
C         22.39011       -0.74715      -14.89174
S         20.86161       -0.09457      -14.40011
C         21.50297        0.23249      -12.84330
C         21.08129        0.84685      -11.64218
S         19.68314        1.58074      -10.97385
C         23.33638       -0.72078      -13.91241
C         22.83874       -0.17186      -12.71599
C         23.31219        0.18811      -11.38175
C         24.51654        0.03164      -10.79939
C         25.65446       -0.70454      -11.32368
C         26.94500       -0.19596      -11.16718
C         28.03747       -0.88709      -11.65359
C         27.86483       -2.11138      -12.27938
C         26.59197       -2.64318      -12.40890
C         25.49500       -1.94737      -11.93776
C         22.16648        0.84721      -10.75238
C         21.86069        1.43187       -9.53196
C         20.55084        1.89121       -9.47255
C         19.88765        2.53741       -8.39525
C         18.54660        2.94926       -8.53215
N         17.82208        2.78455       -9.63664
S         16.32683        3.33975       -9.48031
N         16.56087        3.84634       -7.87884
C         17.83013        3.57857       -7.45881
C         20.49353        2.81891       -7.13323
N         21.77954        2.48792       -6.92697
C         22.36922        2.80654       -5.79841
C         23.80032        2.40686       -5.63480
C         21.67094        3.51493       -4.79603
C         22.34454        3.99619       -3.55277
N         20.39365        3.79021       -4.94260
C         19.76759        3.44973       -6.07709
C         18.38553        3.80292       -6.21314
C         17.65133        4.36118       -5.11127
S         16.40836        5.58790       -5.37487
C         16.08924        5.64896       -3.69165
C         15.18534        6.29447       -2.83488
S         13.92896        7.46383       -2.89828
C         17.78741        4.05760       -3.77417
C         16.91005        4.77318       -2.95554
C         16.50041        4.83704       -1.55291
C         16.89297        4.14453       -0.46531
C         17.97345        3.18425       -0.34300
C         19.20652        3.36374       -0.97023
C         20.21442        2.43249       -0.80801
C         20.01262        1.30838       -0.02422
C         18.79938        1.12986        0.62110
C         17.79500        2.06551        0.47527
C         15.40673        5.81008       -1.53195
C         14.55323        6.37377       -0.59968
C         13.67381        7.29464       -1.16346
C         12.66598        8.05773       -0.52530
C         11.93363        9.01555       -1.25658
N         12.10707        9.24541       -2.55447
S         11.12837       10.38845       -3.11202
N         10.39950       10.65373       -1.60404
C         10.91760        9.82898       -0.64930
C         12.30707        7.92905        0.85203
N         12.93472        7.01613        1.61113
C         12.62850        6.88617        2.88229
C         13.35883        5.84194        3.66347
C         11.65034        7.71360        3.47050
C         11.28917        7.62900        4.91763
N         11.00992        8.60079        2.74134
C         11.28622        8.73576        1.43942
C         10.55511        9.71995        0.68380
C          9.53322       10.51692        1.29599
S          9.05009       12.08542        0.62701
C          7.92031       12.31200        1.89767
C          7.03030       13.30168        2.33592
S          6.48272       14.87145        1.87760
C          8.82147       10.23344        2.44564
C          7.90279       11.22103        2.78797
C          6.95191       11.51623        3.85813
C          6.62685       10.80908        4.95708
C          7.05801        9.45902        5.28221
C          7.42475        9.14400        6.59168
C          7.83857        7.86730        6.91863
C          7.86838        6.87574        5.95104
C          7.47430        7.16770        4.65540
C          7.07242        8.44693        4.32181
C          6.43805       12.84678        3.53281
C          5.54118       13.75762        4.06046
C          5.44411       14.91629        3.29161
C          4.64561       16.05278        3.54233
C          3.74953       16.16970        4.62826
N          3.52175       15.24200        5.55112
S          2.44386       15.71600        6.64519
N          2.21149       17.23370        5.92781
C          2.99026       17.37987        4.81799
C          4.71405       17.17524        2.67012
N          5.52455       17.07692        1.61059
C          5.59530       18.05715        0.73745
C          6.51715       17.88190       -0.42299
C          4.80391       19.21197        0.91463
C          4.78640       20.30923       -0.09914
N          4.03550       19.35500        1.97649
C          3.97001       18.36902        2.87824
C          3.09894       18.49758        4.00973
C          2.38882       19.72259        4.25348
S          0.75502       19.71945        4.92303
C          0.70931       21.43330        4.86226
C         -0.17682       22.45406        5.23430
S         -1.76049       22.64804        5.88798
C          2.83105       21.00370        4.00196
C          1.89721       21.98421        4.34264
C          1.78881       23.44103        4.40875
C          2.67145       24.42494        4.14570
C          4.00202       24.32036        3.57645
C          4.29876       23.45590        2.52263
C          5.57763       23.40355        2.00154
C          6.58051       24.20589        2.52029
C          6.29258       25.08445        3.55254
C          5.01293       25.15185        4.06588
C          0.45986       23.68409        4.97225
C         -0.32698       24.77058        5.30628
C         -1.56707       24.39238        5.81901
C         -2.61016       25.23470        6.25718
C         -2.53819       26.64827        6.26088
N         -1.50427       27.37982        5.86990
S         -1.77514       28.96103        6.01536
N         -3.35044       28.75126        6.63501
C         -3.66581       27.42230        6.72582
C         -3.82779       24.66466        6.72933
N         -3.92620       23.33124        6.74093
C         -5.03470       22.75973        7.16155
C         -5.08668       21.26794        7.14807
C         -6.11851       23.55283        7.60154
C         -7.39266       22.93837        8.08235
N         -6.04737       24.86904        7.60413
C         -4.92136       25.45783        7.17630
C         -4.82787       26.86819        7.17146
H         22.49102       -1.11449      -15.89376
H         24.34257       -1.06911      -14.05976
H         24.66868        0.50780       -9.83811
H         27.08113        0.75877      -10.67924
H         29.02933       -0.47403      -11.54013
H         28.72006       -2.65388      -12.65436
H         26.45491       -3.60728      -12.87721
H         24.50630       -2.37480      -12.01237
H         22.52478        1.54491       -8.69717
H         15.84742        4.25480       -7.29709
H         24.12843        1.85924       -6.51352
H         23.92132        1.77665       -4.75480
H         24.42765        3.28823       -5.50757
H         22.78620        3.16288       -3.00763
H         21.62041        4.50585       -2.92409
H         23.14610        4.68937       -3.80639
H         18.48304        3.31140       -3.44114
H         16.31092        4.29558        0.43664
H         19.37670        4.25466       -1.55472
H         21.16655        2.58421       -1.29261
H         20.80161        0.58026        0.09382
H         18.64113        0.26203        1.24484
H         16.84946        1.92678        0.98028
H         14.52689        6.16171        0.45164
H          9.61005       11.26261       -1.46357
H         14.04481        5.31012        3.01054
H         12.65563        5.13359        4.09906
H         13.92081        6.30120        4.47573
H         10.89686        6.64070        5.15400
H         10.53302        8.37439        5.14789
H         12.16654        7.80130        5.53934
H          8.99909        9.33161        2.99726
H          5.99276       11.29133        5.69155
H          7.40233        9.91625        7.34743
H          8.13363        7.64100        7.93303
H          8.18473        5.87588        6.21009
H          7.47816        6.39356        3.90178
H          6.73371        8.66559        3.32049
H          4.96765       13.63360        4.95967
H          1.62535       17.95911        6.30715
H          5.96035       17.91469       -1.35853
H          7.01978       16.92325       -0.33600
H          7.25862       18.67938       -0.44414
H          5.78652       20.71762       -0.23952
H          4.11121       21.09365        0.22944
H          4.44627       19.92579       -1.06055
H          3.81552       21.18559        3.61576
H          2.37124       25.42840        4.42553
H          3.51119       22.85453        2.09536
H          5.79554       22.73514        1.18281
H          7.57990       24.15631        2.11368
H          7.06747       25.72279        3.95161
H          4.78813       25.83835        4.86988
H         -0.05968       25.80524        5.20033
H         -3.96362       29.50389        6.88877
H         -4.14358       20.88268        6.77179
H         -5.89895       20.92169        6.51037
H         -5.26022       20.88368        8.15234
H         -7.20432       22.29140        8.93803
H         -7.84354       22.33410        7.29630
H         -8.08271       23.72567        8.37125
H         -5.66175       27.45770        7.51364
