138
d6a6.out	Energy:   -9875.2821691
C         23.86296        9.65306      -11.26916
S         23.98843        8.93869       -9.69661
C         22.31271        9.20169       -9.44587
C         21.36566        9.03342       -8.40962
S         21.28911        8.41411       -6.81110
C         22.60367       10.06401      -11.58592
C         21.68920        9.79831      -10.54962
C         20.28316       10.02869      -10.22880
C         19.29208       10.59329      -10.94562
C         19.33578       10.99338      -12.34125
C         19.93655       10.18849      -13.30997
C         19.94050       10.57380      -14.63694
C         19.35162       11.76829      -15.01907
C         18.73646       12.56706      -14.06828
C         18.71476       12.17722      -12.74355
C         20.13656        9.54374       -8.85553
C         19.12971        9.42576       -7.90657
C         19.58504        8.83654       -6.73408
C         18.85018        8.56952       -5.56884
C         19.29129        8.00042       -4.37235
N         20.47035        7.55095       -3.95022
S         20.28531        7.02403       -2.43748
N         18.71156        7.33619       -2.23996
C         18.25823        7.87365       -3.36926
C         17.00838        8.34348       -3.79178
S         17.14773        8.93772       -5.42757
C         15.81624        8.35247       -3.05892
S         14.31714        8.99414       -3.71439
C         13.51259        8.61063       -2.24625
C         12.21382        8.65895       -1.73001
S         10.64606        9.16123       -2.22237
C         15.66683        7.87521       -1.75862
C         14.37517        8.03213       -1.28477
C         13.59165        7.70375       -0.09363
C         13.96646        7.10875        1.05515
C         15.32269        6.75760        1.44402
C         16.38774        7.63819        1.25218
C         17.66982        7.27912        1.62124
C         17.91055        6.03809        2.18773
C         16.85617        5.16698        2.40992
C         15.57081        5.52753        2.05498
C         12.22704        8.10515       -0.42954
C         10.97602        8.09634        0.16042
C          9.99562        8.62711       -0.67713
C          8.62472        8.74668       -0.43712
C          7.64403        9.22414       -1.31428
N          7.68537        9.71137       -2.54915
S          6.17406       10.07472       -2.98754
N          5.39893        9.63196       -1.63774
C          6.30524        9.17533       -0.77845
C          6.24278        8.66757        0.52720
S          7.85813        8.26294        1.06059
C          5.08839        8.48151        1.29256
S          5.12724        7.93183        2.96219
C          3.41042        7.98680        3.02084
C          2.38773        7.65039        3.91329
S          2.20870        7.06217        5.51949
C          3.78852        8.69722        0.83532
C          2.83752        8.43013        1.80316
C          1.38130        8.37531        1.92431
C          0.41814        8.67355        1.03042
C          0.60083        9.28109       -0.27637
C         -0.15891        8.83356       -1.35892
C          0.00996        9.38877       -2.61231
C          0.91902       10.41752       -2.80178
C          1.64841       10.89803       -1.72629
C          1.49149       10.33736       -0.47352
C          1.14620        7.84878        3.26593
C          0.06719        7.50923        4.06060
C          0.46119        7.05690        5.31903
C         -0.35918        6.60879        6.35773
C          0.00960        6.21372        7.64842
N          1.17258        6.14879        8.28687
S          0.88871        5.59300        9.77572
N         -0.71544        5.40774        9.68423
C         -1.09968        5.78114        8.46627
C         -2.33345        5.82450        7.80464
S         -2.09181        6.43098        6.18477
C         -3.57403        5.41578        8.30855
S         -5.01839        5.34634        7.30966
C         -5.90565        4.71839        8.63820
C         -7.22222        4.32590        8.92136
S         -8.72815        4.17153        8.10963
C         -3.80669        4.97737        9.60950
C         -5.11659        4.56744        9.80088
C         -5.96755        4.06489       10.88052
C         -5.67817        3.81437       12.17200
C         -4.36386        3.86014       12.79155
C         -4.21381        4.43524       14.05447
C         -2.96961        4.50458       14.65042
C         -1.85978        3.97745       14.00945
C         -2.00392        3.36663       12.77446
C         -3.24452        3.30616       12.16941
C         -7.29018        3.93587       10.27427
C         -8.55814        3.51086       10.64438
C         -9.45969        3.57291        9.59007
C        -10.81967        3.21381        9.59148
C        -11.72105        3.25592        8.52886
N        -11.62547        3.62450        7.25456
S        -13.07098        3.41209        6.57559
N        -13.89257        2.84870        7.83708
C        -13.05421        2.79647        8.88281
C        -13.15651        2.41368       10.19669
S        -11.64758        2.60851       10.99854
H         24.74750        9.72435      -11.87040
H         22.35949       10.54474      -12.51560
H         18.35455       10.78096      -10.43572
H         20.36775        9.24316      -13.01649
H         20.40147        9.93764      -15.37856
H         19.36166       12.07021      -16.05572
H         18.26600       13.49341      -14.36382
H         18.23355       12.79996      -12.00302
H         18.10922        9.74394       -8.02384
H         16.49340        7.43195       -1.23526
H         13.18753        6.83897        1.75831
H         16.19566        8.61619        0.83779
H         18.48523        7.96929        1.46435
H         18.91468        5.75464        2.46569
H         17.03752        4.20432        2.86498
H         14.75003        4.84537        2.22417
H         10.74028        7.72353        1.14124
H          3.60465        9.01493       -0.17410
H         -0.60255        8.42412        1.29525
H         -0.86522        8.02869       -1.21329
H         -0.57210        9.02183       -3.44503
H          1.04913       10.85114       -3.78209
H          2.34342       11.71276       -1.86466
H          2.03538       10.73384        0.37013
H         -0.96937        7.56860        3.78025
H         -3.02209        4.98354       10.34280
H         -6.50318        3.57466       12.83239
H         -5.07769        4.85130       14.55297
H         -2.86400        4.96829       15.62027
H         -0.88796        4.03256       14.47680
H         -1.14560        2.93767       12.27928
H         -3.36247        2.80249       11.22216
H         -8.84748        3.16446       11.62050
H        -14.00320        2.03770       10.73107
