154
d6a7.out	Energy:  -10617.8378262
C         25.20883       -7.80021       -1.12113
S         23.48345       -7.69538       -1.02845
C         23.58746       -5.98369       -1.06961
C         22.70724       -4.87989       -1.11160
S         21.02473       -4.55818       -1.06782
C         25.83130       -6.58900       -1.17125
C         24.91160       -5.52532       -1.12811
C         24.90210       -4.06706       -1.20636
C         25.91105       -3.17699       -1.28185
C         27.33095       -3.44512       -1.13826
C         28.25143       -2.76916       -1.94164
C         29.60610       -3.00268       -1.80781
C         30.06835       -3.89236       -0.85098
C         29.16650       -4.54220       -0.02371
C         27.80945       -4.32393       -0.16517
C         23.48274       -3.71126       -1.22013
C         22.71186       -2.56027       -1.26562
C         21.35031       -2.83606       -1.19480
C         20.28291       -1.90844       -1.19851
C         20.45349       -0.50793       -1.30347
N         21.60770        0.14686       -1.44403
S         21.31978        1.72829       -1.52125
N         19.71893        1.67387       -1.37912
C         19.33163        0.40553       -1.26521
C         18.93671       -2.32203       -1.08046
N         18.54477       -3.59247       -0.99173
S         16.94239       -3.64652       -0.86832
N         16.65877       -2.06324       -0.91790
C         17.81430       -1.40914       -1.03500
C         17.98749       -0.00586       -1.11283
C         16.93150        0.92431       -1.03393
S         17.24167        2.64520       -1.18165
C         15.56791        2.96367       -0.95793
C         14.72887        4.07086       -0.81963
S         14.83203        5.78433       -0.85774
C         15.58107        0.64172       -0.82643
C         14.79985        1.77987       -0.79579
C         13.40605        2.15001       -0.55510
C         12.32396        1.37827       -0.33388
C         12.26205       -0.07128       -0.41882
C         11.52712       -0.78971        0.52598
C         11.47212       -2.16892        0.47232
C         12.12656       -2.85355       -0.53934
C         12.82351       -2.14864       -1.50727
C         12.89066       -0.76997       -1.45057
C         13.41457        3.61079       -0.54897
C         12.51689        4.64098       -0.36318
C         13.11683        5.89726       -0.48906
C         12.51265        7.15960       -0.34108
C         11.15401        7.36033        0.01706
N         10.25842        6.40086        0.24104
S          8.84359        7.06895        0.62507
N          9.29069        8.61202        0.52898
C         10.57635        8.68044        0.19021
C         13.24411        8.35516       -0.53573
N         14.52696        8.42001       -0.88389
S         14.96740        9.96501       -1.00920
N         13.55056       10.62963       -0.62559
C         12.66569        9.66609       -0.38111
C         11.31962        9.87420       -0.00103
C         10.78925       11.16752        0.15977
S         11.76120       12.58218       -0.21147
C         10.43828       13.59736        0.20363
C         10.16403       14.96165        0.30308
S         10.94477       16.46332        0.00942
C          9.50494       11.50280        0.59412
C          9.28949       12.86505        0.61020
C          8.23749       13.80777        0.98781
C          6.99818       13.58271        1.46542
C          6.34780       12.28891        1.59925
C          5.60991       11.99899        2.74795
C          5.00657       10.76579        2.90192
C          5.10597        9.81153        1.90197
C          5.79894       10.10426        0.73857
C          6.41398       11.33192        0.58584
C          8.84150       15.12307        0.79160
C          8.48068       16.44689        0.92575
C          9.50559       17.31795        0.54438
C          9.47905       18.72502        0.54912
C          8.37356       19.50087        0.98014
N          7.21172       19.04194        1.44319
S          6.25448       20.28434        1.81330
N          7.26129       21.47135        1.40655
C          8.40019       20.94726        0.95969
C         10.58573       19.48821        0.10402
N         11.72177       18.96514       -0.34962
S         12.72429       20.15355       -0.76840
N         11.76778       21.39330       -0.39458
C         10.61008       20.93401        0.08045
C          9.50671       21.70857        0.51596
C          9.48593       23.11798        0.51061
S          8.06086       23.99830        1.03524
C          8.85922       25.48296        0.70601
C          8.61244       26.85464        0.83907
S          7.35182       27.89732        1.35769
C         10.51627       23.96625        0.10608
C         10.16907       25.30064        0.19314
C         10.78151       26.61142       -0.02031
C         12.00833       26.93633       -0.47261
C         13.00559       26.01946       -1.00013
C         12.65923       24.99285       -1.87977
C         13.62196       24.12776       -2.36282
C         14.94550       24.27317       -1.98001
C         15.30635       25.30807       -1.13195
C         14.34854       26.18246       -0.65611
C          9.76584       27.56187        0.42350
C          9.61686       28.93241        0.52836
C          8.36492       29.29176        1.02223
C          7.87511       30.59817        1.26051
C          6.57317       30.81819        1.75857
N          5.69260       29.86157        2.05072
S          4.33839       30.54370        2.58612
N          4.78158       32.07932        2.48124
C          6.03730       32.14250        2.01264
C          8.62029       31.77760        1.02972
N          9.86908       31.85248        0.56638
S         10.30188       33.39860        0.46854
N          8.94868       34.06682        1.00151
C          8.06723       33.09865        1.29099
C          6.78102       33.29145        1.78013
H         25.66276       -8.77137       -1.13163
H         26.89768       -6.47975       -1.24889
H         25.64641       -2.14321       -1.46971
H         27.89222       -2.07414       -2.68706
H         30.30671       -2.48409       -2.44580
H         31.12810       -4.06859       -0.74190
H         29.52401       -5.21940        0.73844
H         27.10905       -4.80538        0.50065
H         23.07525       -1.55287       -1.34649
H         15.24243       -0.36848       -0.69366
H         11.40551        1.87569       -0.04609
H         11.01970       -0.25754        1.31793
H         10.91316       -2.71366        1.21916
H         12.08182       -3.93171       -0.58037
H         13.31771       -2.67607       -2.30969
H         13.40727       -0.22021       -2.22228
H         11.47078        4.54486       -0.13935
H          8.80467       10.74215        0.88297
H          6.42870       14.43882        1.80656
H          5.53609       12.74006        3.53099
H          4.45333       10.54749        3.80372
H          4.63403        8.84795        2.02430
H          5.86193        9.37194       -0.05266
H          6.92803       11.57055       -0.33267
H          7.53665       16.82023        1.27691
H         11.46101       23.57278       -0.21834
H         12.29903       27.97903       -0.42740
H         11.63389       24.89856       -2.20323
H         13.33881       23.33614       -3.04072
H         15.69543       23.59029       -2.35069
H         16.33976       25.43488       -0.84395
H         14.63090       26.98620        0.00879
H         10.35076       29.67489        0.27517
H          6.38744       34.27457        1.96715
