134
d6a8.out	Energy:   -7849.8144601
C          5.66739      -11.89750        6.36220
S          5.05260      -10.67251        5.30354
C          6.61137       -9.96492        5.22151
C          7.22375       -8.82190        4.64788
S          6.80649       -7.49697        3.64395
C          6.99547      -11.77017        6.63294
C          7.56307      -10.66525        5.96866
C          8.84175       -9.96171        5.88221
C         10.03483      -10.22674        6.44861
C         10.40136      -11.41653        7.19765
C         10.02441      -12.68948        6.76836
C         10.40122      -13.81033        7.48340
C         11.15539      -13.68076        8.63847
C         11.55230      -12.42278        9.06320
C         11.19205      -11.30115        8.34224
C          8.56147       -8.79159        5.04912
C          9.25391       -7.69403        4.53554
C          8.45091       -6.88614        3.75606
C          8.80999       -5.68399        3.09355
C          8.01579       -4.84929        2.33931
C          8.69303       -3.73631        1.83940
C         10.02172       -3.69335        2.19909
S         10.44206       -5.07317        3.18020
C         10.99529       -2.71476        1.87487
S         10.55779       -1.31966        0.90043
C         12.16790       -0.73987        1.00402
C         12.90196        0.39769        0.60363
S         12.65368        1.85342       -0.26709
C         12.32711       -2.70176        2.23731
C         13.01007       -1.59332        1.73327
C         14.34361       -0.99387        1.79883
C         15.47099       -1.42944        2.39319
C         15.68125       -2.72369        3.01950
C         15.21430       -3.90035        2.43237
C         15.43434       -5.12221        3.03899
C         16.12300       -5.19133        4.23924
C         16.61298       -4.03190        4.81900
C         16.40692       -2.80994        4.20889
C         14.21070        0.27628        1.08696
C         15.01405        1.36313        0.74346
C         14.32745        2.31425        0.01383
C         14.81082        3.54840       -0.48872
C         14.11729        4.51384       -1.18568
C         14.89422        5.61883       -1.53047
C         16.20290        5.52518       -1.10949
S         16.47371        4.02636       -0.25897
C         17.25261        6.45955       -1.29616
S         16.92703        7.99475       -2.08744
C         18.57455        8.43420       -1.91610
C         19.42192        9.49351       -2.30589
S         19.31349       11.00005       -3.11626
C         18.57680        6.33253       -0.92694
C         19.33750        7.45481       -1.26146
C         20.73205        7.89827       -1.21907
C         21.82727        7.29456       -0.71912
C         21.86449        6.06890        0.06073
C         22.87265        5.13076       -0.16735
C         22.91812        3.95776        0.56065
C         21.97612        3.71325        1.54713
C         20.99406        4.65487        1.80889
C         20.93645        5.82318        1.07328
C         20.73083        9.18363       -1.91656
C         21.64693       10.17096       -2.27863
C         21.04895       11.22452       -2.94268
C         21.66429       12.38092       -3.48483
C         21.06691       13.43383       -4.14291
C         21.96951       14.40247       -4.58046
C         23.28006       14.11436       -4.26910
S         23.39270       12.60602       -3.39955
C         24.44399       14.86027       -4.58425
S         24.31006       16.36161       -5.48785
C         26.01443       16.53896       -5.45077
C         26.99268       17.40978       -5.98232
S         27.07455       18.84141       -6.92226
C         25.75357       14.55024       -4.27871
C         26.65553       15.50573       -4.75174
C         28.10212       15.71866       -4.82111
C         29.11750       14.99430       -4.31304
C         29.00862       13.85832       -3.41323
C         29.84068       12.75123       -3.58702
C         29.74660       11.66271       -2.74179
C         28.84161       11.67192       -1.69239
C         28.03693       12.78109       -1.48749
C         28.11752       13.86590       -2.33939
C         28.25709       16.92285       -5.63472
C         29.29387       17.71683       -6.12969
C         28.82958       18.79351       -6.85453
C         29.59336       19.79791       -7.51342
C         29.14641       20.87015       -8.24379
C         30.18894       21.66176       -8.75831
C         31.42001       21.19558       -8.42174
S         31.33598       19.77252       -7.46079
H          4.99131      -12.64668        6.72379
H          7.52726      -12.43555        7.28836
H         10.81103       -9.47663        6.35161
H          9.46260      -12.79180        5.85192
H         10.10870      -14.79081        7.13662
H         11.44195      -14.55757        9.20001
H         12.14916      -12.31832        9.95749
H         11.50154      -10.32046        8.67442
H         10.29109       -7.46939        4.71060
H          6.97348       -5.04948        2.16372
H          8.23601       -2.97522        1.23179
H         12.75364       -3.47187        2.85443
H         16.31467       -0.75004        2.42367
H         14.70590       -3.84992        1.48131
H         15.06809       -6.02532        2.57288
H         16.28747       -6.14639        4.71545
H         17.16221       -4.08297        5.74778
H         16.78829       -1.90628        4.66267
H         16.05028        1.48408        1.00499
H         13.07521        4.40938       -1.43129
H         14.52438        6.46977       -2.07481
H         18.94938        5.44297       -0.45176
H         22.78823        7.75157       -0.92409
H         23.60593        5.31912       -0.93844
H         23.69298        3.23179        0.36223
H         22.01450        2.79698        2.11734
H         20.27060        4.47855        2.59144
H         20.19026        6.57052        1.29773
H         22.70485       10.14546       -2.08630
H         20.00397       13.48589       -4.29991
H         21.68703       15.29193       -5.11554
H         26.01503       13.65271       -3.74777
H         30.12433       15.26939       -4.60419
H         30.54557       12.74239       -4.40607
H         30.38460       10.80499       -2.89743
H         28.77187       10.82217       -1.02975
H         27.34453       12.80111       -0.65856
H         27.51236       14.74222       -2.16208
H         30.34392       17.53379       -5.98626
H         28.10156       21.07242       -8.39935
H         30.02995       22.54253       -9.35428
H         32.38005       21.59857       -8.67528
