134
d6a9.out	Energy:  -15866.9087852
C         12.39608      -13.90092        5.75426
S         12.27752      -13.61934        4.04929
C         12.57439      -11.95125        4.30714
C         12.62592      -10.75771        3.54438
S         12.48277      -10.26111        1.91031
C         12.65826      -12.77742        6.47703
C         12.77863      -11.64012        5.65474
C         12.97444      -10.19670        5.78122
C         13.17753       -9.42783        6.86813
C         13.40990       -9.88521        8.22787
C         14.26851      -10.95149        8.49750
C         14.49289      -11.35871        9.79882
C         13.86217      -10.71399       10.85063
C         13.02223       -9.64163       10.59582
C         12.80873       -9.22029        9.29781
C         12.84852       -9.68742        4.41476
C         12.91163       -8.46107        3.75210
C         12.72848       -8.58635        2.38948
C         12.71194       -7.55423        1.41609
C         12.47386       -7.68622        0.06588
C         12.50614       -6.50266       -0.67582
C         12.77659       -5.35531        0.04048
Se        13.02909       -5.74916        1.86548
C         12.86129       -4.03348       -0.47167
S         13.36093       -2.70502        0.56161
C         13.19941       -1.60913       -0.74766
C         13.30627       -0.22111       -0.98522
S         13.73532        1.21398       -0.14863
C         12.59352       -3.61420       -1.76104
C         12.79630       -2.24467       -1.93314
C         12.63531       -1.23488       -2.97905
C         12.25259       -1.36003       -4.26389
C         12.04502       -2.60039       -4.99313
C         10.96290       -2.72328       -5.86587
C         10.75618       -3.89498       -6.56782
C         11.64119       -4.95280       -6.43348
C         12.73939       -4.82871       -5.59769
C         12.94094       -3.66441       -4.88122
C         12.94907        0.02946       -2.31678
C         13.02596        1.37855       -2.65517
C         13.43639        2.16610       -1.59438
C         13.62637        3.57273       -1.58344
C         13.37469        4.44605       -2.62212
C         13.65793        5.78899       -2.36746
C         14.15253        6.06999       -1.11210
Se        14.29930        4.49487       -0.08253
C         14.53341        7.33913       -0.60925
S         14.41487        8.76830       -1.62723
C         15.03954        9.73107       -0.35381
C         15.30269       11.09363       -0.10317
S         15.21938       12.59398       -0.92823
C         15.03564        7.63469        0.64282
C         15.34526        8.98664        0.79664
C         15.83395        9.90118        1.83024
C         16.23960        9.65311        3.09030
C         16.42615        8.34486        3.69590
C         17.04632        7.30620        3.00017
C         17.21737        6.06927        3.59173
C         16.77512        5.84837        4.88597
C         16.18300        6.88045        5.59621
C         16.02144        8.12219        5.01287
C         15.76415       11.22537        1.21331
C         16.05460       12.54728        1.54727
C         15.81422       13.42318        0.50535
C         15.99010       14.82900        0.48562
C         15.74489       15.68173       -0.56788
C         16.00669       17.03339       -0.33018
C         16.47742       17.33953        0.92688
Se        16.62668       15.78359        1.98595
C         16.82043       18.61925        1.42979
S         16.62889       20.05223        0.42873
C         17.21742       21.02974        1.70846
C         17.53697       22.38754        1.93252
S         17.47137       23.88490        1.09901
C         17.31277       18.92486        2.68282
C         17.52755       20.29222        2.86110
C         18.06252       21.20469        3.87320
C         18.50736       20.95814        5.12013
C         18.42106       19.69443        5.83307
C         19.49880       19.25257        6.60200
C         19.43330       18.04796        7.27495
C         18.28261       17.27800        7.21507
C         17.19202       17.72567        6.48699
C         17.25823       18.92348        5.80148
C         18.06509       22.51317        3.22238
C         18.41092       23.82923        3.53297
C         18.15993       24.70175        2.49526
C         18.39640       26.10546        2.45936
C         18.14970       26.96780        1.42096
C         18.48461       28.31452        1.66569
C         19.00211       28.56215        2.89708
Se        19.12802       27.02856        3.93260
H         12.26301      -14.90076        6.11709
H         12.74502      -12.77609        7.54833
H         13.15777       -8.35300        6.73177
H         14.78140      -11.43519        7.67959
H         15.16493      -12.18166        9.99477
H         14.03324      -11.03881       11.86618
H         12.53816       -9.12855       11.41400
H         12.15436       -8.38325        9.10010
H         13.07559       -7.50110        4.21562
H         12.27489       -8.64723       -0.37947
H         12.33710       -6.48669       -1.73892
H         12.24687       -4.28267       -2.52678
H         12.07011       -0.45066       -4.82418
H         10.27188       -1.89914       -5.97135
H          9.90561       -3.98314       -7.22772
H         11.48188       -5.86620       -6.98697
H         13.44386       -5.64285       -5.50656
H         13.81176       -3.55663       -4.25193
H         12.79945        1.78062       -3.62538
H         12.98302        4.11310       -3.56774
H         13.50519        6.56560       -3.09895
H         15.14892        6.87242        1.39670
H         16.44126       10.50377        3.73054
H         17.41979        7.48796        2.00342
H         17.69898        5.27409        3.04156
H         16.90116        4.87835        5.34311
H         15.84812        6.71556        6.61003
H         15.55493        8.92482        5.56623
H         16.42404       12.89006        2.50076
H         15.37557       15.31709       -1.51233
H         15.85490       17.79688       -1.07540
H         17.51146       18.15654        3.41246
H         18.98898       21.76975        5.65255
H         20.39764       19.85090        6.64712
H         20.28045       17.70900        7.85315
H         18.23212       16.33767        7.74338
H         16.28537       17.13915        6.45408
H         16.39837       19.28751        5.25922
H         18.83410       24.16249        4.46684
H         17.72960       26.62975        0.48820
H         18.33771       29.08738        0.92994
H         19.31913       29.51331        3.28419
