182
d7a1.out	Energy:   -9508.1467978
C        -16.46412        8.41634       -8.87315
S        -16.08472        6.95307       -9.71926
C        -14.88650        6.59001       -8.54767
C        -13.88920        5.60798       -8.32634
S        -13.32336        4.15598       -9.03222
C        -15.71674        8.60892       -7.75175
C        -14.81017        7.55266       -7.53599
C        -13.73667        7.18601       -6.61391
C        -13.29381        7.78166       -5.48920
C        -13.90471        8.90158       -4.79457
C        -15.29445        8.97620       -4.65988
C        -15.86254       10.03965       -3.97968
O        -17.20057       10.21562       -3.79085
C        -18.08400        9.25516       -4.31809
C        -15.05245       11.03656       -3.42957
C        -13.67359       10.95324       -3.54280
O        -12.79979       11.86115       -3.03209
C        -13.31428       12.97108       -2.33632
C        -13.10147        9.87337       -4.21548
C        -13.16775        5.96408       -7.18239
C        -12.15684        5.05361       -6.87641
C        -12.09530        4.00960       -7.77750
C        -11.19937        2.89519       -7.77517
C        -11.26708        1.88308       -8.72590
C        -10.42895        0.77493       -8.73117
C        -10.18751        2.74821       -6.78722
N         -9.89914        3.56994       -5.77948
S         -8.66686        2.96570       -4.93725
N         -8.43579        1.63130       -5.80551
C         -9.31847        1.60126       -6.79867
C         -9.43613        0.58002       -7.77682
C         -8.58015       -0.56376       -7.74192
S         -7.33404       -0.69454       -6.51523
C         -6.86850       -2.21909       -7.14556
C         -5.98733       -3.27026       -6.81502
S         -4.80339       -3.63573       -5.63399
C         -8.60037       -1.66191       -8.58429
C         -7.62044       -2.60122       -8.27110
C         -7.19145       -3.93256       -8.70128
C         -7.58858       -4.69502       -9.73917
C         -8.48050       -4.30220      -10.81603
C         -8.40457       -3.02385      -11.36567
C         -9.27049       -2.65778      -12.38840
O         -9.29550       -1.43076      -12.97791
C         -8.38610       -0.45209      -12.53446
C        -10.19845       -3.57730      -12.86601
C        -10.25502       -4.86596      -12.34381
O        -11.18788       -5.68473      -12.90153
C        -11.28863       -7.00752      -12.43281
C         -9.38704       -5.23249      -11.32285
C         -6.18661       -4.32623       -7.71610
C         -5.38495       -5.43120       -7.43957
C         -4.57741       -5.23632       -6.33533
C         -3.67723       -6.16343       -5.72589
C         -2.87879       -5.81735       -4.64063
C         -2.04641       -6.71220       -3.98187
C         -3.57550       -7.51239       -6.16369
N         -4.21031       -8.09558       -7.17879
S         -3.77795       -9.64635       -7.25286
N         -2.76662       -9.65755       -6.00267
C         -2.72145       -8.44075       -5.47016
C         -1.94345       -8.04992       -4.34990
C         -1.15567       -9.00276       -3.63421
S         -1.31206      -10.71527       -3.97273
C         -0.22770      -11.07121       -2.69534
C          0.35619      -12.20919       -2.09699
S          0.28978      -13.91640       -2.22759
C         -0.27431       -8.75343       -2.59623
C          0.24712       -9.91898       -2.04220
C          1.18027      -10.31972       -0.98830
C          1.90656       -9.58106       -0.12835
C          1.84476       -8.13905        0.05350
C          0.62601       -7.47047        0.09217
C          0.58616       -6.08978        0.25336
O         -0.65902       -5.53558        0.24967
C         -0.78754       -4.14508        0.41521
C          1.76668       -5.36615        0.39377
C          2.98601       -6.03812        0.38917
O          4.19643       -5.43067        0.53649
C          4.24166       -4.03577        0.70757
C          3.02221       -7.41867        0.22936
C          1.21430      -11.77913       -1.07302
C          1.80466      -12.83852       -0.39270
C          1.40876      -14.07162       -0.88624
C          1.77075      -15.36789       -0.40723
C          2.60529      -15.58411        0.68587
C          2.90357      -16.84944        1.17717
C          1.25216      -16.53808       -1.01951
N          0.44883      -16.59234       -2.07776
S          0.11424      -18.13261       -2.40689
N          0.97112      -18.80452       -1.22105
C          1.56096      -17.84576       -0.51297
C          2.39750      -18.02004        0.61949
C          2.65490      -19.32349        1.14518
S          1.88366      -20.72592        0.43122
C          2.62176      -21.73286        1.60303
C          2.69077      -23.11007        1.91176
S          2.04558      -24.59332        1.34995
C          3.44622      -19.65780        2.23096
C          3.42143      -21.02115        2.51496
C          4.02593      -21.96607        3.45562
C          4.86200      -21.77257        4.49360
C          5.30206      -20.50489        5.05225
C          4.42566      -19.43508        5.20100
C          4.86919      -18.23331        5.74199
O          3.93289      -17.24552        5.82221
C          4.29607      -16.00615        6.37771
C          6.19162      -18.09417        6.15278
C          7.06245      -19.17404        6.03389
O          8.36801      -19.15207        6.42215
C          8.88734      -17.97947        6.99820
C          6.61558      -20.37455        5.49458
C          3.54444      -23.27379        3.01210
C          3.66612      -24.60614        3.39671
C          2.92022      -25.45722        2.60007
C          2.80172      -26.88244        2.70032
C          3.45613      -27.64241        3.65727
C          3.32063      -29.03495        3.73809
C          1.97683      -27.60131        1.79454
N          1.25610      -27.09349        0.79970
S          0.48599      -28.29262        0.05060
N          1.02481      -29.51305        0.94587
C          1.84285      -29.03099        1.88427
C          2.52966      -29.74819        2.87502
H        -17.22972        9.05219       -9.27177
H        -15.80491        9.47937       -7.12722
H        -12.38679        7.39153       -5.04419
H        -15.89526        8.17805       -5.06219
H        -19.08327        9.60249       -4.06049
H        -17.91798        8.26906       -3.87302
H        -17.99638        9.18016       -5.40683
H        -15.54377       11.84505       -2.91483
H        -12.44694       13.55138       -2.02568
H        -13.88015       12.66317       -1.45148
H        -13.95108       13.58725       -2.97877
H        -12.02760        9.82583       -4.29791
H        -11.47950        5.12264       -6.04597
H        -12.01822        1.95924       -9.49904
H        -10.56799        0.03766       -9.50646
H         -9.32171       -1.78040       -9.37151
H         -7.21312       -5.71022       -9.78212
H         -7.64745       -2.35015      -11.00135
H         -8.59677        0.43485      -13.12984
H         -7.34920       -0.76077      -12.70090
H         -8.52692       -0.21562      -11.47448
H        -10.87166       -3.29399      -13.65736
H        -12.08086       -7.46812      -13.02079
H        -11.56068       -7.04008      -11.37278
H        -10.35671       -7.56112      -12.58658
H         -9.41393       -6.21906      -10.88880
H         -5.37538       -6.35508       -7.98709
H         -2.92401       -4.79910       -4.28131
H         -1.48310       -6.35661       -3.13362
H         -0.02132       -7.76116       -2.27440
H          2.63396      -10.09786        0.48560
H         -0.30294       -8.01196        0.02648
H         -1.85714       -3.94364        0.38445
H         -0.29513       -3.59455       -0.39353
H         -0.38643       -3.81434        1.37883
H          1.73643       -4.29662        0.51462
H          5.29705       -3.78557        0.80315
H          3.71454       -3.72278        1.61507
H          3.82477       -3.50887       -0.15715
H          3.98091       -7.91156        0.21785
H          2.48813      -12.72733        0.42903
H          3.03327      -14.73228        1.19081
H          3.54437      -16.91941        2.04217
H          4.02016      -18.93417        2.77820
H          5.27449      -22.65393        4.96950
H          3.38692      -19.53006        4.93253
H          3.39491      -15.39569        6.34768
H          5.08191      -15.51560        5.79314
H          4.62578      -16.10999        7.41665
H          6.53571      -17.16277        6.56939
H          9.92653      -18.20324        7.23411
H          8.35890      -17.71393        7.91997
H          8.85138      -17.13600        6.30061
H          7.31352      -21.19144        5.40653
H          4.26940      -24.94808        4.21770
H          4.09664      -27.15100        4.37250
H          3.86346      -29.55628        4.51294
H          2.42458      -30.81861        2.93676
