182
d7a2.out	Energy:  -17525.2471680
C        -14.75992       10.11422       -9.67911
S        -13.58606        9.58990       -8.51813
C        -13.37867        8.12848       -9.38998
C        -12.55645        6.97485       -9.33186
S        -11.33876        6.29549       -8.33681
C        -14.98295        9.21352      -10.67557
C        -14.20606        8.04991      -10.51481
C        -13.92967        6.79803      -11.21751
C        -14.47283        6.27216      -12.33255
C        -15.62964        6.76393      -13.06144
C        -15.64380        6.70592      -14.44757
C        -16.74917        7.16677      -15.16243
O        -16.65310        7.08353      -16.51664
C        -17.74325        7.51413      -17.29512
C        -17.84921        7.66066      -14.47923
C        -17.85210        7.68689      -13.08217
O        -18.99326        8.17380      -12.51790
C        -19.07562        8.23027      -11.11405
C        -16.74937        7.24103      -12.37376
C        -12.85666        6.17568      -10.44135
C        -12.09801        5.00923      -10.47731
C        -11.21952        4.91484       -9.41073
C        -10.30003        3.85747       -9.12472
C        -10.14020        2.74821       -9.94594
C         -9.26897        1.70438       -9.64875
C         -8.49744        1.67504       -8.49801
C         -8.59771        2.80903       -7.63764
C         -9.49125        3.89709       -7.95150
N         -9.46464        4.89101       -7.07932
Se        -8.29673        4.53562       -5.81315
N         -7.88346        3.00268       -6.53864
C         -7.62257        0.59644       -8.15453
S         -7.10840       -0.62031       -9.32009
C         -6.12111       -1.36492       -8.12792
C         -5.28945       -2.49910       -7.98128
S         -4.68537       -3.79054       -8.93133
C         -7.05568        0.38413       -6.91594
C         -6.18549       -0.69882       -6.89547
C         -5.34845       -1.39316       -5.92001
C         -5.10125       -1.04520       -4.64373
C         -5.57820        0.18819       -4.01904
C         -6.23629        0.12326       -2.79360
C         -6.77300        1.27849       -2.23649
O         -7.45302        1.32780       -1.05845
C         -7.62724        0.13635       -0.33138
C         -6.62887        2.49439       -2.89792
C         -5.92884        2.57112       -4.09565
O         -5.84034        3.81499       -4.65324
C         -4.98654        3.97914       -5.76305
C         -5.39065        1.41588       -4.65050
C         -4.83796       -2.55187       -6.65048
C         -4.03084       -3.65803       -6.40790
C         -3.85274       -4.44474       -7.53481
C         -3.12123       -5.66920       -7.64021
C         -2.67173       -6.37945       -6.53339
C         -1.97843       -7.58032       -6.63370
C         -1.65986       -8.16860       -7.85175
C         -2.07306       -7.46435       -9.01762
C         -2.81876       -6.23333       -8.91190
N         -3.15784       -5.70049      -10.07622
Se        -2.55933       -6.71210      -11.37723
N         -1.84847       -7.86015      -10.26145
C         -0.96274       -9.41362       -7.94871
S         -0.22626       -9.91574       -9.45605
C          0.35254      -11.34211       -8.70504
C          1.05040      -12.51331       -9.07233
S          1.84863      -13.16894      -10.43882
C         -0.76871      -10.34011       -6.93821
C         -0.01692      -11.43698       -7.35025
C          0.45514      -12.71557       -6.81717
C          0.33427      -13.26156       -5.59194
C         -0.21418      -12.63635       -4.39983
C          0.05448      -11.30722       -4.08968
C         -0.49112      -10.72775       -2.94977
O         -0.18618       -9.41211       -2.75752
C         -0.68927       -8.75603       -1.62066
C         -1.29669      -11.47743       -2.09787
C         -1.53816      -12.81765       -2.38803
O         -2.29367      -13.64534       -1.61399
C         -2.86719      -13.13942       -0.43423
C         -0.99204      -13.39395       -3.52898
C          1.10096      -13.36496       -7.95708
C          1.76261      -14.55707       -8.22820
C          2.22828      -14.62079       -9.53265
C          2.93192      -15.69576      -10.15853
C          3.07925      -16.94831       -9.57435
C          3.75870      -17.99392      -10.19039
C          4.34265      -17.87961      -11.44334
C          4.23653      -16.60531      -12.07815
C          3.53128      -15.52094      -11.44016
N          3.53299      -14.39047      -12.12740
Se         4.44425      -14.60465      -13.61488
N          4.78575      -16.27399      -13.23839
C          5.05291      -18.94419      -12.08199
S          5.49909      -20.42550      -11.23762
C          6.33138      -20.98608      -12.63136
C          7.04975      -22.12422      -13.06517
S          7.55244      -23.64400      -12.45648
C          5.52118      -18.94087      -13.37915
C          6.27218      -20.06758      -13.68963
C          6.99902      -20.59918      -14.84031
C          7.20329      -20.01783      -16.03693
C          6.78316      -18.65985      -16.38046
C          7.09205      -17.59106      -15.54174
C          6.60410      -16.32135      -15.82823
O          6.80771      -15.21657      -15.05066
C          7.72461      -15.32112      -13.98547
C          5.83402      -16.12357      -16.96741
C          5.56936      -17.17708      -17.83742
O          4.82976      -16.86042      -18.93442
C          4.53183      -17.87490      -19.86262
C          6.05500      -18.44744      -17.54826
C          7.44789      -21.91807      -14.39775
C          8.16344      -22.99554      -14.90880
C          8.30960      -24.02320      -13.99120
C          8.97303      -25.27975      -14.18102
C          9.59880      -25.63162      -15.36527
C         10.24077      -26.86550      -15.54304
C         10.29256      -27.80993      -14.55406
C          9.67657      -27.51423      -13.32476
C          9.01376      -26.24572      -13.13137
N          8.47428      -26.08892      -11.93286
Se         8.76753      -27.52768      -10.97391
N          9.63798      -28.32005      -12.26788
H        -15.21527       11.07593       -9.54786
H        -15.65841        9.39336      -11.49223
H        -14.00775        5.38408      -12.74252
H        -14.79482        6.32952      -14.99520
H        -18.64612        6.93515      -17.07657
H        -17.44984        7.34712      -18.33033
H        -17.94893        8.57861      -17.14429
H        -18.72936        8.02315      -14.98314
H        -20.05528        8.65160      -10.89409
H        -18.30017        8.87602      -10.68936
H        -19.00169        7.23406      -10.66659
H        -16.74166        7.21842      -11.29704
H        -12.17624        4.25955      -11.24311
H        -10.71842        2.68057      -10.85387
H         -9.20139        0.87153      -10.33421
H         -7.29357        0.99927       -6.07206
H         -4.53852       -1.72478       -4.01594
H         -6.35442       -0.83723       -2.31794
H         -8.17085        0.41795        0.56906
H         -6.66690       -0.30719       -0.04876
H         -8.21532       -0.59649       -0.89354
H         -7.05949        3.38556       -2.47231
H         -4.99607        5.04482       -5.98929
H         -5.35155        3.42301       -6.63168
H         -3.96604        3.66610       -5.52501
H         -4.84204        1.44047       -5.57696
H         -3.58051       -3.88344       -5.45846
H         -2.87871       -5.99377       -5.54721
H         -1.66523       -8.06658       -5.72274
H         -1.19159      -10.22583       -5.95800
H          0.65903      -14.28755       -5.46963
H          0.71027      -10.71768       -4.70816
H         -0.31241       -7.73604       -1.67939
H         -0.33105       -9.21857       -0.69511
H         -1.78456       -8.73512       -1.61758
H         -1.72120      -11.02804       -1.21622
H         -3.40483      -13.97422        0.01254
H         -3.57309      -12.32868       -0.64354
H         -2.10369      -12.78714        0.26742
H         -1.20471      -14.43055       -3.73484
H          1.91449      -15.34448       -7.51283
H          2.63876      -17.12949       -8.60652
H          3.83013      -18.94188       -9.67611
H          5.30334      -18.13938      -14.05510
H          7.67837      -20.59373      -16.82143
H          7.69612      -17.77803      -14.66980
H          7.79485      -14.32253      -13.55533
H          8.70993      -15.63429      -14.34237
H          7.37000      -16.01869      -13.22041
H          5.44251      -15.14360      -17.18421
H          3.95018      -17.39372      -20.64727
H          3.93537      -18.67342      -19.40966
H          5.44122      -18.30171      -20.29803
H          5.84424      -19.28851      -18.18928
H          8.55725      -23.03783      -15.90775
H          9.59828      -24.93608      -16.18946
H         10.70674      -27.06682      -16.49651
H         10.78416      -28.75958      -14.68667
