222
d7a4.out	Energy:  -10565.0798585
C         12.80506        3.81538       21.97480
S         13.75377        3.18305       20.67108
C         13.08847        4.36185       19.61669
C         13.14424        4.68931       18.24256
S         13.93294        4.16826       16.80762
C         12.02677        4.87621       21.62147
C         12.18986        5.21852       20.26619
C         11.63952        6.15181       19.28586
C         10.73719        7.14297       19.42090
C         10.17976        7.65211       20.66280
C         10.99729        7.84773       21.77374
C         10.45539        8.34995       22.95043
O         11.16176        8.57819       24.09197
C         12.54102        8.29906       24.09525
C          9.09857        8.64949       23.01023
C          8.28243        8.47376       21.89708
O          6.97482        8.81088       22.06843
C          6.09361        8.65973       20.98220
C          8.82792        7.98831       20.71539
C         12.25941        5.75709       18.02047
C         12.23015        6.15657       16.69212
C         13.07543        5.39645       15.89340
C         13.27051        5.51649       14.49575
C         12.62422        6.48197       13.69371
N         11.76996        7.42584       14.09241
S         11.30236        8.29178       12.81936
N         12.15436        7.51799       11.69634
C         12.85032        6.53799       12.26914
C         14.13933        4.63732       13.80491
N         14.79012        3.72535       14.54801
C         15.57772        2.84716       13.98995
C         16.27814        1.87410       14.87528
C         15.74187        2.84631       12.57517
C         16.59054        1.82931       11.88967
N         15.15361        3.74840       11.83277
C         14.34640        4.67342       12.39076
C         13.70249        5.64572       11.57820
C         13.85466        5.74992       10.17287
S         12.97558        6.98732        9.28155
C         13.67096        6.43247        7.81417
C         13.55400        6.68464        6.44063
S         12.72431        7.75140        5.38338
C         14.64826        4.97155        9.33513
C         14.57579        5.36050        8.00853
C         15.09298        4.93544        6.70888
C         16.03241        4.02603        6.37862
C         16.92718        3.30903        7.26854
C         17.33162        2.01730        6.92844
C         18.21141        1.32753        7.75205
O         18.66108        0.06202        7.52491
C         18.22567       -0.60865        6.36772
C         18.69693        1.93696        8.90487
C         18.31676        3.23389        9.23525
O         18.85672        3.73589       10.37977
C         18.41258        4.99487       10.83070
C         17.43586        3.92271        8.41177
C         14.36928        5.76220        5.74573
C         14.29516        5.91076        4.37402
C         13.43625        6.93982        3.99216
C         13.10372        7.36244        2.68312
C         12.31575        8.52133        2.48605
N         11.83074        9.28503        3.46275
S         11.00633       10.50885        2.81818
N         11.21931       10.13189        1.26926
C         11.95477        9.02476        1.18283
C         13.50361        6.68934        1.49498
N         14.22994        5.55708        1.56808
C         14.58968        4.93170        0.47660
C         15.38820        3.67890        0.63055
C         14.23096        5.43006       -0.80579
C         14.62995        4.74977       -2.07078
N         13.52217        6.52390       -0.89728
C         13.13365        7.18289        0.20630
C         12.36957        8.36052        0.00577
C         12.08025        8.82132       -1.29558
S         12.60527        7.92329       -2.70639
C         11.91549        9.12989       -3.72314
C         11.73587        9.36904       -5.08993
S         12.08134        8.61077       -6.58938
C         11.40984        9.99658       -1.62883
C         11.33459       10.19772       -2.99396
C         10.77590       11.16928       -3.93393
C         10.11345       12.31987       -3.70828
C          9.88740       12.94748       -2.41504
C         10.89870       13.03009       -1.47062
C         10.65636       13.60811       -0.22410
O         11.71081       13.62346        0.63413
C         11.52042       14.15985        1.92014
C          9.39941       14.11522        0.06227
C          8.38831       14.06739       -0.90109
O          7.20230       14.61662       -0.51354
C          6.13042       14.61072       -1.42406
C          8.63111       13.49720       -2.13891
C         11.04310       10.59258       -5.24979
C         10.82594       10.91312       -6.57559
C         11.32509        9.94782       -7.45002
C         11.27980        9.93523       -8.86384
C         11.72494        8.79837       -9.57980
N         12.22669        7.69597       -9.02632
S         12.60412        6.64059      -10.18129
N         12.14994        7.52832      -11.44508
C         11.67639        8.69923      -11.01728
C         10.81435       11.01487       -9.66617
N         10.40115       12.15896       -9.08757
C          9.99400       13.16100       -9.82368
C          9.55372       14.40143       -9.11787
C          9.97673       13.06828      -11.24281
C          9.52609       14.19181      -12.11311
N         10.36963       11.96628      -11.82397
C         10.79239       10.92178      -11.09216
C         11.19475        9.76649      -11.80741
C         11.12353        9.71824      -13.21760
S         10.66383       11.12807      -14.15133
C         10.88680       10.23317      -15.60605
C         10.73444       10.42053      -16.98819
S         10.31054       11.67275      -18.08931
C         11.40585        8.61731      -14.02074
C         11.29329        8.89837      -15.37038
C         11.40653        8.19830      -16.64930
C         11.72555        6.91701      -16.91453
C         12.17863        5.92431      -15.95118
C         11.67636        4.63275      -16.01240
C         12.07537        3.67665      -15.07850
O         11.50466        2.44796      -15.21108
C         11.86873        1.43763      -14.30261
C         12.99969        4.01443      -14.10298
C         13.53942        5.30273      -14.06474
O         14.45711        5.51367      -13.08103
C         15.03000        6.79523      -12.96756
C         13.13450        6.25381      -14.98636
C         11.02852        9.20244      -17.64019
C         10.90730        9.29314      -19.01572
C         10.52383       10.56398      -19.43208
C         10.31407       11.00205      -20.76361
C         10.45784       10.16659      -21.89487
N         10.79424        8.87634      -21.91112
S         10.82579        8.36220      -23.43525
N         10.41948        9.73040      -24.16336
C         10.23434       10.67793      -23.23408
C          9.94404       12.34033      -21.03149
N          9.79275       13.16849      -19.98322
C          9.45775       14.41478      -20.17524
C          9.30365       15.28500      -18.97432
C          9.25192       14.90657      -21.50366
C          8.87592       16.33051      -21.74794
N          9.38621       14.13126      -22.54169
C          9.73152       12.83131      -22.36025
C          9.87508       12.00012      -23.46534
H         12.88361        3.34997       22.93748
H         11.35774        5.36826       22.30402
H         10.37801        7.61427       18.51402
H         12.04920        7.63404       21.68310
H         12.88834        8.54833       25.09667
H         13.07779        8.91192       23.36402
H         12.74077        7.24091       23.89661
H          8.67707        9.03335       23.92382
H          5.11870        8.97810       21.34792
H          6.03306        7.61686       20.65432
H          6.38517        9.29064       20.13621
H          8.22257        7.83769       19.83597
H         11.63336        6.94974       16.28178
H         16.04681        2.10268       15.91147
H         17.35426        1.92597       14.71855
H         15.95420        0.85854       14.65130
H         17.64300        2.01166       12.10431
H         16.44292        1.88763       10.81479
H         16.34222        0.82828       12.23634
H         15.21738        4.14824        9.72201
H         16.15482        3.81044        5.32385
H         16.93310        1.56848        6.03264
H         18.71237       -1.58238        6.39137
H         18.52509       -0.07791        5.45811
H         17.13965       -0.74805        6.36691
H         19.38267        1.40121        9.53937
H         18.92159        5.16383       11.77867
H         17.33018        5.00141       10.99255
H         18.68315        5.79261       10.13212
H         17.16163        4.94281        8.61602
H         14.81231        5.32205        3.64090
H         15.53059        3.46452        1.68575
H         16.36022        3.78847        0.15146
H         14.87391        2.84192        0.16075
H         14.23078        3.73684       -2.09886
H         15.71488        4.68580       -2.14097
H         14.24513        5.31336       -2.91548
H         11.01306       10.64199       -0.86854
H          9.67714       12.82228       -4.56325
H         11.88970       12.67013       -1.69008
H         12.47537       14.04798        2.43140
H         10.74849       13.61377        2.47236
H         11.25537       15.22132        1.87727
H          9.15772       14.56615        1.00997
H          5.30117       15.09019       -0.90618
H          5.84276       13.59127       -1.70061
H          6.36829       15.17959       -2.32884
H          7.86166       13.43746       -2.89184
H         10.33111       11.79043       -6.94601
H          9.66826       14.27158       -8.04562
H          8.51037       14.61631       -9.34520
H         10.15058       15.25302       -9.44082
H          8.49583       14.46001      -11.88373
H          9.59854       13.88741      -13.15306
H         10.14736       15.07109      -11.94861
H         11.66061        7.66623      -13.59354
H         11.61746        6.57256      -17.93554
H         10.94881        4.35524      -16.75805
H         11.29800        0.55790      -14.59617
H         11.61078        1.70998      -13.27421
H         12.93822        1.21131      -14.36077
H         13.34034        3.31250      -13.36045
H         15.70691        6.73991      -12.11613
H         14.26695        7.55621      -12.77870
H         15.59891        7.06079      -13.86435
H         13.55697        7.24417      -14.99592
H         11.07803        8.50075      -19.72072
H          9.50326       14.69873      -18.08205
H          8.29335       15.68875      -18.92507
H          9.99844       16.12247      -19.02072
H          7.93288       16.56364      -21.25582
H          8.77523       16.49561      -22.81658
H          9.63853       16.99777      -21.34911
H          9.71314       12.37398      -24.46136
