170
d7a6.out	Energy:  -10791.0992343
C         23.73282       19.25739       -2.92938
S         22.04053       19.13910       -2.58093
C         22.17067       17.42952       -2.54690
C         21.31887       16.31237       -2.39594
S         19.66664       15.97678       -2.08548
C         24.36269       18.05255       -3.00845
C         23.47853       16.98220       -2.77709
C         23.48440       15.52182       -2.77824
C         24.48422       14.64101       -2.97628
C         25.90251       14.93599       -3.09326
C         26.51165       15.85722       -2.25493
C         27.88054       16.10793       -2.35863
O         28.37884       17.02473       -1.48632
C         29.75764       17.30458       -1.52015
C         28.63007       15.43728       -3.31127
C         28.02162       14.49796       -4.14871
O         28.85991       13.89656       -5.03777
C         28.32868       12.93798       -5.92011
C         26.66766       14.23465       -4.03124
C         22.08691       15.14794       -2.55141
C         21.34062       13.98458       -2.41373
C         20.00097       14.25241       -2.15793
C         18.99286       13.29545       -1.95907
C         19.13300       11.90339       -1.97759
N         20.15470       11.07726       -2.19550
S         19.60551        9.56278       -2.07567
N         18.05458        9.87535       -1.74485
C         17.90147       11.19647       -1.71013
C         16.80519       12.03862       -1.48591
S         17.32889       13.69802       -1.62122
C         15.49721       11.64039       -1.18269
S         14.16644       12.77920       -1.03757
C         13.09492       11.48254       -0.68483
C         11.75857       11.30983       -0.30865
S         10.35355       12.26331       -0.03638
C         15.09449       10.32468       -0.96539
C         13.73902       10.22151       -0.70258
C         12.76638        9.19249       -0.34006
C         12.89056        7.85468       -0.22598
C         14.03223        7.03055       -0.57877
C         14.32404        5.91831        0.20012
C         15.41154        5.10293       -0.11108
O         15.62029        4.05155        0.72570
C         16.68921        3.17798        0.45278
C         16.18877        5.39367       -1.22101
C         15.87739        6.49118       -2.02851
O         16.69240        6.66080       -3.10399
C         16.50192        7.79506       -3.91763
C         14.80259        7.30589       -1.71263
C         11.53836        9.93481       -0.06498
C         10.24760        9.66425        0.34970
C          9.46702       10.81675        0.42915
C          8.13865       10.91804        0.84926
C          7.33214       12.06004        0.91385
N          7.51908       13.33281        0.58220
S          6.15613       14.13667        0.90370
N          5.26515       12.91193        1.47727
C          6.01216       11.81194        1.44209
C          5.79040       10.47454        1.79791
S          7.22603        9.54402        1.43861
C          4.63680        9.94499        2.38243
S          4.45624        8.23276        2.73876
C          2.89901        8.53600        3.39983
C          1.90185        7.82980        4.07616
S          1.58638        6.22806        4.61216
C          3.51885       10.68668        2.76309
C          2.52503        9.90087        3.31846
C          1.21620       10.06637        3.94861
C          0.44249       11.15870        4.11186
C          0.65420       12.48943        3.57205
C          1.17213       12.67858        2.28717
C          1.35833       13.96280        1.80226
O          1.85334       14.26617        0.57279
C          2.32572       13.21612       -0.23910
C          1.02228       15.06706        2.59048
C          0.48324       14.88288        3.85374
O          0.11108       15.88883        4.69004
C          0.28244       17.21754        4.25905
C          0.28822       13.58952        4.33695
C          0.87948        8.73410        4.44582
C         -0.13978        8.13289        5.16089
C          0.08554        6.76942        5.35346
C         -0.73527        5.89528        6.07198
C         -1.91235        6.21138        6.76565
N         -2.60689        7.33092        6.93960
S         -3.87726        6.98214        7.87898
N         -3.60621        5.40693        8.11156
C         -2.49953        5.08231        7.45060
C         -1.78869        3.88667        7.27534
S         -0.39582        4.19273        6.27050
C         -2.12422        2.63265        7.79882
S         -1.20304        1.17781        7.44641
C         -2.28738        0.25899        8.40983
C         -2.43045       -1.06562        8.84917
S         -1.64835       -2.58266        8.65655
C         -3.21381        2.38235        8.62914
C         -3.32238        1.04401        8.96692
C         -4.16604        0.18600        9.80025
C         -5.23346        0.50140       10.55734
C         -5.87817        1.80537       10.62205
C         -6.16857        2.51994        9.46544
C         -6.74832        3.78178        9.54501
O         -6.98150        4.39719        8.35460
C         -7.48003        5.71120        8.35552
C         -7.04923        4.33420       10.78683
C         -6.79142        3.60466       11.94410
O         -7.06411        4.04398       13.20405
C         -7.64389        5.31405       13.37180
C         -6.22073        2.33934       11.86003
C         -3.55195       -1.13556        9.70158
C         -3.77132       -2.41480       10.19124
C         -2.82927       -3.32280        9.72546
C         -2.73515       -4.69632       10.01336
C         -1.79088       -5.61020        9.54762
N         -0.73989       -5.51631        8.73812
S         -0.07694       -6.98031        8.62720
N         -1.06748       -7.80920        9.58433
C         -1.99297       -6.95857       10.05234
C         -3.07675       -7.05957       10.88827
S         -3.84634       -5.53138       11.06198
H         24.16119       20.23204       -3.05421
H         25.40883       17.94922       -3.23010
H         24.21355       13.59570       -3.06544
H         25.94827       16.36351       -1.48889
H         29.92782       18.03963       -0.73511
H         30.05821       17.72790       -2.48387
H         30.35360       16.40988       -1.31469
H         29.68751       15.59912       -3.43610
H         29.16578       12.60516       -6.53173
H         27.55796       13.37011       -6.56639
H         27.91270       12.08144       -5.38010
H         26.17716       13.51409       -4.66562
H         21.70534       12.97658       -2.48646
H         15.80310        9.51790       -0.97840
H         12.04608        7.31824        0.18957
H         13.73364        5.68083        1.07039
H         16.65685        2.42031        1.23413
H         17.65199        3.69727        0.49138
H         16.57480        2.69659       -0.52360
H         17.03589        4.79344       -1.50763
H         17.27339        7.73778       -4.68419
H         16.62595        8.71836       -3.34346
H         15.51764        7.78711       -4.39634
H         14.51833        8.12947       -2.34459
H          9.85315        8.69573        0.60044
H          3.49865       11.75447        2.65012
H         -0.43893       11.04499        4.73122
H          1.38128       11.81460        1.68028
H          2.70323       13.69254       -1.14269
H          1.52394       12.52085       -0.50714
H          3.13800       12.67192        0.25242
H          1.18988       16.04405        2.16932
H         -0.07416       17.84073        5.07763
H         -0.30674       17.42738        3.36076
H          1.33546       17.44330        4.06392
H         -0.12509       13.46443        5.32482
H         -1.01566        8.61291        5.55690
H         -3.86378        3.17615        8.94499
H         -5.63879       -0.26385       11.20748
H         -5.96685        2.10345        8.49283
H         -7.54004        6.00410        7.30851
H         -6.80620        6.39563        8.88195
H         -8.47962        5.76461        8.80047
H         -7.48738        5.31559       10.85158
H         -7.76792        5.44059       14.44616
H         -8.62378        5.37805       12.88708
H         -6.99426        6.10818       12.98910
H         -6.01937        1.80141       12.77223
H         -4.56473       -2.70773       10.85541
H         -3.46204       -7.91555       11.40078
