166
d7a9.out	Energy:  -16782.7194472
C         20.93710      -14.02909       -7.70221
S         19.46446      -13.29595       -8.24451
C         19.65672      -12.05549       -7.07838
C         19.00624      -10.85365       -6.70108
S         17.63246       -9.93055       -7.14783
C         21.53685      -13.36002       -6.67990
C         20.80282      -12.22107       -6.29466
C         20.90681      -11.09463       -5.36791
C         21.84438      -10.77574       -4.45546
C         22.99249      -11.57054       -4.05176
C         24.21073      -10.93486       -3.82904
C         25.33046      -11.66864       -3.45594
O         26.47542      -10.95057       -3.28712
C         27.65264      -11.62279       -2.91378
C         25.23395      -13.04549       -3.27313
C         24.00741      -13.67695       -3.45795
O         23.79988      -15.01279       -3.28820
C         24.87912      -15.82587       -2.89934
C         22.89194      -12.94196       -3.84564
C         19.74830      -10.25516       -5.68034
C         19.19570       -9.04730       -5.25376
C         18.05090       -8.71350       -5.94969
C         17.27304       -7.53526       -5.80997
C         16.19804       -7.14496       -6.57456
C         15.63758       -5.90515       -6.24712
C         16.22343       -5.25057       -5.19077
Se        17.67427       -6.24245       -4.49460
C         15.93482       -3.96837       -4.65768
S         14.95640       -2.77622       -5.50126
C         15.33265       -1.61043       -4.29509
C         15.05219       -0.25626       -4.00606
S         14.20146        1.05721       -4.70529
C         16.47107       -3.46251       -3.49339
C         16.17038       -2.11747       -3.29166
C         16.47370       -1.05144       -2.33483
C         17.29628       -1.07178       -1.26800
C         18.12611       -2.20529       -0.88110
C         18.82044       -2.93154       -1.83603
C         19.47865       -4.11232       -1.49105
O         20.00477       -4.81339       -2.53306
C         20.67341       -6.02176       -2.26072
C         19.52034       -4.50603       -0.16400
C         18.90250       -3.72376        0.81664
O         19.03925       -4.19029        2.08936
C         18.44525       -3.46557        3.13816
C         18.19959       -2.58350        0.46295
C         15.70888        0.09741       -2.81865
C         15.51636        1.43675       -2.48130
C         14.73008        2.10884       -3.39747
C         14.38120        3.48305       -3.40452
C         13.74458        4.16764       -4.41500
C         13.57080        5.53898       -4.20561
C         14.03654        6.01975       -3.00557
Se        14.82085        4.64014       -1.97763
C         14.06373        7.35699       -2.53432
S         13.86056        8.74203       -3.59827
C         14.22621        9.79973       -2.29385
C         14.34870       11.18698       -2.05876
S         14.24999       12.65285       -2.94105
C         14.35929        7.73828       -1.24371
C         14.48887        9.11786       -1.09710
C         14.82276       10.09032       -0.05401
C         15.21173        9.87409        1.21753
C         15.44275        8.55626        1.79513
C         16.12160        7.57970        1.07419
C         16.19557        6.27456        1.54675
O         16.75787        5.37576        0.68791
C         16.86404        4.03085        1.08370
C         15.67740        5.95777        2.79851
C         15.08247        6.95734        3.56521
O         14.57139        6.76222        4.81218
C         14.66662        5.48642        5.39549
C         14.95639        8.24821        3.06108
C         14.68334       11.38906       -0.71183
C         14.85315       12.73781       -0.40119
C         14.66076       13.56322       -1.49241
C         14.78000       14.97515       -1.55419
C         14.74288       15.76099       -2.68553
C         14.91014       17.13253       -2.47969
C         15.07943       17.52400       -1.16810
Se        15.04112       16.03372       -0.01436
C         15.25916       18.85067       -0.69166
S         15.18082       19.19584        1.02766
C         15.43926       20.86173        0.71534
C         15.61350       22.05837        1.44641
S         15.60321       22.59066        3.07680
C         15.47852       19.99131       -1.43963
C         15.56338       21.14276       -0.65371
C         15.82251       22.57428       -0.81962
C         16.02400       23.30747       -1.93191
C         15.88282       22.85853       -3.30686
C         14.81509       22.04318       -3.67566
C         14.69768       21.61135       -4.99117
O         13.70870       20.79782       -5.45202
C         12.71704       20.36544       -4.55116
C         15.64302       22.00685       -5.93166
C         16.69273       22.84776       -5.57461
O         17.54462       23.18294       -6.58083
C         18.62387       24.03867       -6.29318
C         16.80628       23.28442       -4.26040
C         15.86412       23.09799        0.54399
C         16.04199       24.32777        1.17980
C         15.93653       24.23516        2.55119
C         16.06584       25.28167        3.50815
C         15.95990       25.18394        4.87255
C         16.13347       26.39208        5.57699
C         16.38083       27.47862        4.80024
Se        16.42195       27.06106        2.99347
H         21.26840      -14.92650       -8.18581
H         22.46578      -13.67203       -6.23985
H         21.76237       -9.80628       -3.97841
H         24.31439       -9.87097       -3.96918
H         28.42073      -10.85398       -2.84592
H         27.95042      -12.36264       -3.66419
H         27.54726      -12.11219       -1.93977
H         26.09928      -13.61572       -2.98083
H         24.47523      -16.83434       -2.82554
H         25.28004      -15.52695       -1.92514
H         25.68230      -15.81428       -3.64390
H         21.94716      -13.44887       -3.94921
H         19.59429       -8.40883       -4.48115
H         15.82650       -7.75821       -7.37924
H         14.80051       -5.48279       -6.77853
H         17.05644       -4.08410       -2.83829
H         17.32481       -0.20167       -0.62365
H         18.84440       -2.61104       -2.86411
H         21.02259       -6.38427       -3.22667
H         19.99727       -6.76049       -1.81697
H         21.53108       -5.86674       -1.59909
H         20.01729       -5.40495        0.15984
H         18.69369       -4.00816        4.04889
H         17.35665       -3.42061        3.03046
H         18.84710       -2.44910        3.20179
H         17.67233       -1.99681        1.19790
H         15.92849        1.93466       -1.61789
H         13.41973        3.66991       -5.31405
H         13.10236        6.18702       -4.92804
H         14.46643        7.00684       -0.46200
H         15.33163       10.72560        1.87481
H         16.57726        7.80978        0.12564
H         17.35809        3.52348        0.25613
H         15.87786        3.58100        1.24505
H         17.47146        3.92238        1.98818
H         15.73230        4.94851        3.16985
H         14.22198        5.58184        6.38478
H         15.70896        5.16690        5.49884
H         14.10984        4.73737        4.82257
H         14.44430        8.98699        3.65597
H         15.11407       13.13151        0.56819
H         14.59949       15.33323       -3.66416
H         14.90315       17.83789       -3.29328
H         15.60147       19.96880       -2.50646
H         16.33519       24.33704       -1.80132
H         14.08038       21.78725       -2.93068
H         12.05839       19.71890       -5.12880
H         12.14038       21.20657       -4.15360
H         13.14235       19.79482       -3.71885
H         15.55516       21.66909       -6.95046
H         19.15766       24.16476       -7.23375
H         19.29926       23.60055       -5.55117
H         18.27951       25.01611       -5.94001
H         17.61426       23.92692       -3.94905
H         16.24360       25.26498        0.68651
H         15.75786       24.24534        5.36139
H         16.07413       26.44598        6.65114
H         16.54245       28.48718        5.13439
