378
d8a12.out	Energy:  -14515.6992893
C         -6.24843       26.89232      -19.49604
S         -7.08403       27.94571      -18.41034
C         -7.78730       26.57783      -17.58847
C         -8.64852       26.64911      -16.49825
C         -9.03456       27.90577      -15.89066
C         -9.11386       28.20765      -14.55975
C         -9.52486       29.53302      -14.29613
C         -9.68277       30.10304      -12.92386
C         -9.76679       30.23962      -15.44105
C        -10.22035       31.65154      -15.55536
S         -9.47719       29.28470      -16.85548
C         -9.11766       25.42218      -15.99248
C        -10.04280       25.21144      -14.93780
C         -6.46855       25.58427      -19.25636
C         -7.34076       25.35925      -18.15072
C         -7.77541       24.13196      -17.61822
C         -7.31889       22.85109      -18.12022
C         -8.04740       21.70819      -18.29304
C         -7.29101       20.60665      -18.75170
C         -7.86535       19.25492      -19.02603
C         -5.96974       20.91318      -18.91605
C         -4.87869       20.01287      -19.37645
S         -5.64722       22.56719      -18.51882
C         -8.67220       24.20437      -16.55609
S         -9.36761       22.84412      -15.72219
C        -10.28326       23.90026      -14.65806
C        -11.15875       23.33587      -13.65814
C        -11.34173       21.94849      -13.60130
C        -12.18370       21.42684      -12.64910
N        -12.48164       20.10281      -12.39929
C        -11.99250       18.95057      -13.11366
C        -10.78257       18.29650      -12.42874
C        -10.43781       16.99460      -13.14623
C         -9.57773       19.23267      -12.40650
C        -13.32684       19.98837      -11.32575
O        -13.76201       18.92307      -10.93935
C        -11.82185       24.14783      -12.72948
C        -12.67410       23.62023      -11.78026
C        -12.88982       22.24664      -11.73654
C        -13.64226       21.38030      -10.86056
C        -14.54089       21.67804       -9.87188
C        -15.11317       20.82761       -8.85345
C        -14.81016       19.55448       -8.38272
C        -15.53059       19.03206       -7.32650
C        -15.23990       22.99572       -9.71735
O        -15.10812       24.02775      -10.34368
N        -16.17611       22.84202       -8.72683
C        -17.05471       23.91338       -8.33023
C        -18.34756       23.96594       -9.15946
C        -19.23575       22.75258       -8.89917
C        -19.10030       25.25556       -8.84286
C        -16.10818       21.57548       -8.18009
C        -16.83274       21.05819       -7.13357
C        -16.56270       19.74856       -6.71460
C        -17.36902       19.15053       -5.67610
S        -16.79048       17.77022       -4.76823
C        -18.29735       17.65951       -3.90125
C        -18.61907       16.69804       -2.94986
C        -17.68226       15.69341       -2.49452
C        -17.50758       15.22802       -1.22013
C        -16.52152       14.22416       -1.10518
C        -16.15533       13.55470        0.17990
C        -15.94427       13.92363       -2.30757
C        -14.88026       12.91963       -2.57604
S        -16.59999       14.88373       -3.58987
C        -19.93253       16.74146       -2.44101
C        -20.55498       15.81114       -1.57204
C        -18.62999       19.50701       -5.30363
C        -19.18579       18.69081       -4.28718
C        -20.46811       18.78677       -3.70991
C        -21.34453       19.89111       -4.03619
C        -21.00492       21.20592       -4.20187
C        -22.09197       22.04250       -4.53589
C        -21.97315       23.51334       -4.77406
C        -23.26910       21.35282       -4.62579
C        -24.61291       21.89496       -4.96101
S        -23.05160       19.66904       -4.28753
C        -20.82228       17.77111       -2.82870
S        -22.37698       17.57892       -2.06526
C        -21.85246       16.10548       -1.28009
C        -22.76275       15.30989       -0.48912
C        -22.24879       14.42377        0.46744
C        -23.12098       13.59022        1.12473
N        -22.85006       12.67401        2.12337
C        -21.56421       12.37298        2.70008
C        -20.78986       11.26211        1.96452
C        -21.66658       10.02691        1.77469
C        -20.22937       11.72828        0.62300
C        -24.01224       12.12258        2.60376
O        -24.04136       11.34777        3.53805
C        -24.14377       15.38249       -0.68864
C        -25.01636       14.54206       -0.02502
C        -24.51092       13.59758        0.86109
C        -25.12330       12.61863        1.72899
C        -26.38270       12.08636        1.68559
C        -27.07377       11.21752        2.60688
C        -26.81808       10.79298        3.90667
C        -27.70805        9.94254        4.53301
C        -27.28311       12.18284        0.48835
O        -27.08948       12.72986       -0.57728
N        -28.38796       11.41179        0.74973
C        -29.46172       11.26123       -0.19972
C        -30.60566       12.27758       -0.02150
C        -31.41167       12.02844        1.25068
C        -30.07299       13.70798       -0.04152
C        -28.28377       10.81689        1.99076
C        -29.15518        9.94537        2.59811
C        -28.86432        9.48740        3.88902
C        -29.75601        8.54573        4.52464
S        -30.90243        7.64623        3.54785
C        -31.51252        6.81121        4.94776
C        -32.56611        5.90201        4.94764
C        -33.21929        5.51689        3.71372
C        -32.64448        5.32270        2.48820
C        -33.55979        4.98858        1.46587
C        -33.16812        4.71629        0.05019
C        -34.84937        4.93980        1.91529
C        -36.07404        4.61876        1.13433
S        -34.94514        5.29734        3.60587
C        -32.94978        5.39997        6.20714
C        -33.95331        4.44394        6.49411
C        -29.84761        8.20503        5.84001
C        -30.83156        7.22119        6.11798
C        -31.20392        6.70036        7.37355
C        -30.48454        7.06290        8.57654
C        -29.13229        7.17744        8.74321
C        -28.74527        7.54615       10.05029
C        -27.32668        7.72977       10.48236
C        -29.81761        7.71893       10.88053
C        -29.79808        8.11366       12.31436
S        -31.31384        7.41469       10.06500
C        -32.27869        5.81839        7.38148
S        -32.94206        5.04518        8.79507
C        -34.08475        4.14968        7.81821
C        -35.04351        3.25129        8.41715
C        -35.70154        2.30919        7.61362
C        -36.66300        1.51621        8.18916
N        -37.39971        0.51069        7.59573
C        -37.35420        0.15482        6.20160
C        -38.04315        1.19903        5.30893
C        -37.78870        0.86757        3.84135
C        -39.53879        1.24745        5.60498
C        -38.20655       -0.10992        8.51327
O        -38.94662       -1.02994        8.23173
C        -35.34473        3.31503        9.78075
C        -36.31389        2.51312       10.35349
C        -37.01754        1.61801        9.55464
C        -38.02828        0.61876        9.81455
C        -38.80520        0.41464       10.92178
C        -39.68727       -0.68126       11.24910
C        -39.85688       -1.96528       10.74340
C        -40.77707       -2.81100       11.33131
C        -39.02815        1.43433       12.00096
O        -38.50877        2.51858       12.16472
N        -40.03438        0.95430       12.80008
C        -40.58265        1.68606       13.91194
C        -41.98711        2.23667       13.62087
C        -42.54364        2.89720       14.87875
C        -41.94180        3.22728       12.46163
C        -40.42340       -0.30680       12.39727
C        -41.34738       -1.13964       12.98072
C        -41.54473       -2.41279       12.43139
C        -42.54846       -3.28706       12.99208
S        -43.82079       -2.61708       13.99617
C        -44.54330       -4.18612       14.21110
C        -45.70105       -4.45250       14.93646
C        -46.45700       -3.38703       15.56092
C        -45.98428       -2.25606       16.16578
C        -46.99252       -1.37384       16.61341
C        -46.72102       -0.07965       17.30829
C        -48.24925       -1.83246       16.33530
C        -49.54745       -1.17897       16.65251
S        -48.20050       -3.36352       15.52958
C        -46.10293       -5.80204       14.98712
C        -47.20915       -6.35539       15.67600
C        -42.68666       -4.63350       12.84494
C        -43.81636       -5.17680       13.50936
C        -44.24598       -6.51823       13.52639
C        -43.56146       -7.53593       12.75629
C        -43.09137       -7.44944       11.47565
C        -42.47024       -8.63021       11.01293
C        -41.88500       -8.78890        9.64716
C        -42.46551       -9.61999       11.95562
C        -41.89625      -10.98802       11.82477
S        -43.23788       -9.11243       13.41892
C        -45.37025       -6.79584       14.29536
S        -46.09817       -8.36567       14.49081
C        -47.35823       -7.69946       15.50698
C        -48.39626       -8.54394       16.04899
C        -49.55596       -7.96195       16.58037
C        -50.52700       -8.78729       17.09216
N        -51.74966       -8.42882       17.62362
C        -52.24539       -7.08307       17.74804
C        -52.70018       -6.49220       16.40408
C        -53.90638       -7.25570       15.86649
C        -53.02689       -5.01239       16.58316
C        -52.46594       -9.53786       17.99039
O        -53.54978       -9.47983       18.53315
C        -48.27727       -9.93674       16.03338
C        -49.25196      -10.76026       16.56348
C        -50.39017      -10.19470       17.12826
C        -51.60636      -10.73469       17.69338
C        -51.94391      -12.02123       18.00664
C        -53.23546      -12.59590       18.32420
C        -54.53797      -12.12906       18.20600
C        -55.59012      -12.98462       18.49211
C        -50.96404      -13.14040       18.19303
O        -49.76169      -13.15545       18.02370
N        -51.66674      -14.21360       18.67929
C        -51.02298      -15.45294       19.03399
C        -50.66401      -15.56327       20.52801
C        -49.82275      -14.37088       20.97579
C        -51.90094      -15.70148       21.41177
C        -53.02169      -13.94069       18.70311
C        -54.07054      -14.79449       18.97827
C        -55.36214      -14.29572       18.87792
H         -5.63932       27.32745      -20.26406
H         -8.84067       27.51198      -13.78549
H         -9.39637       29.37096      -12.17373
H        -10.71775       30.39642      -12.74866
H         -9.06107       30.98964      -12.80367
H        -11.18848       31.78257      -15.07054
H        -10.31026       31.93943      -16.59921
H         -9.51014       32.31997      -15.06724
H        -10.53114       26.02375      -14.43313
H         -6.03821       24.79625      -19.84596
H         -9.10955       21.66081      -18.13153
H         -8.93361       19.25148      -18.82843
H         -7.38998       18.50283      -18.39677
H         -7.69998       18.97170      -20.06526
H         -4.77619       19.16217      -18.70164
H         -3.93240       20.54600      -19.41210
H         -5.09948       19.62374      -20.37121
H        -10.81764       21.31402      -14.29866
H        -11.73952       19.24988      -14.13278
H        -12.81190       18.22532      -13.14699
H        -11.07246       18.06610      -11.39820
H        -10.17397       17.19140      -14.18356
H        -11.28218       16.30990      -13.12792
H         -9.59270       16.50976      -12.66404
H         -9.25575       19.46649      -13.41951
H         -8.74693       18.76101      -11.88668
H         -9.81371       20.16303      -11.89512
H        -11.66650       25.21425      -12.75144
H        -13.17943       24.27483      -11.09257
H        -14.03950       18.96520       -8.84644
H        -15.31157       18.03493       -6.97487
H        -16.50255       24.84586       -8.48386
H        -17.28535       23.80818       -7.26741
H        -18.05963       23.97460      -10.21578
H        -19.56448       22.73600       -7.86120
H        -18.70786       21.82624       -9.11294
H        -20.11937       22.79321       -9.53208
H        -18.48815       26.12464       -9.07036
H        -19.37071       25.28939       -7.78903
H        -20.01186       25.31507       -9.43222
H        -17.58499       21.64241       -6.63030
H        -18.03904       15.62908       -0.37475
H        -16.66539       14.02932        1.01412
H        -15.08090       13.61049        0.34948
H        -16.43403       12.50097        0.15421
H        -13.98470       13.14923       -1.99730
H        -14.62113       12.91270       -3.63119
H        -15.21512       11.92192       -2.29009
H        -20.06752       14.91373       -1.23895
H        -19.18645       20.28885       -5.78609
H        -20.00700       21.57525       -4.04135
H        -20.95748       23.84830       -4.58039
H        -22.65190       24.06353       -4.12359
H        -22.23148       23.75607       -5.80504
H        -24.90032       22.66843       -4.24776
H        -25.35851       21.10498       -4.93847
H        -24.60740       22.34392       -5.95495
H        -21.19411       14.41781        0.68512
H        -21.76291       12.03754        3.72287
H        -20.96717       13.28848        2.73752
H        -19.94795       10.99726        2.61473
H        -22.45959       10.22868        1.05710
H        -22.12584        9.73282        2.71473
H        -21.07325        9.19606        1.40031
H        -21.03140       12.01518       -0.05290
H        -19.66681       10.92217        0.15690
H        -19.55734       12.57427        0.75380
H        -24.52903       16.09903       -1.39851
H        -26.07299       14.61242       -0.21269
H        -25.92156       11.10099        4.41477
H        -27.49007        9.59984        5.53192
H        -29.85092       10.24207       -0.13284
H        -29.01668       11.40804       -1.18907
H        -31.26945       12.14066       -0.88292
H        -32.22595       12.74647        1.31916
H        -30.78616       12.14002        2.13343
H        -31.84245       11.02946        1.25095
H        -29.48104       13.90753        0.84993
H        -30.89736       14.41687       -0.06688
H        -29.44366       13.87216       -0.91233
H        -30.05509        9.61237        2.10618
H        -31.58343        5.37949        2.32314
H        -32.09517        4.83273       -0.07363
H        -33.67555        5.40399       -0.62580
H        -33.44658        3.70233       -0.23636
H        -36.19303        5.31888        0.30675
H        -36.95589        4.67278        1.76725
H        -36.00573        3.61466        0.71337
H        -34.56992        4.00307        5.73452
H        -29.26501        8.67492        6.61025
H        -28.42641        6.95895        7.96097
H        -26.64987        7.53370        9.65527
H        -27.08497        7.05194       11.30049
H        -27.16287        8.74794       10.83483
H        -29.23507        7.38724       12.90166
H        -30.80932        8.17187       12.70756
H        -29.31726        9.08496       12.43661
H        -35.44068        2.20066        6.57417
H        -37.86717       -0.80631        6.10708
H        -36.30835        0.03120        5.90075
H        -37.61327        2.18261        5.52857
H        -38.18977       -0.11421        3.59960
H        -36.72279        0.86807        3.62266
H        -38.26945        1.60227        3.20014
H        -39.99642        0.28092        5.40632
H        -40.02532        1.99705        4.98515
H        -39.71728        1.49912        6.64800
H        -34.81271        4.02554       10.39597
H        -36.53079        2.60097       11.40321
H        -39.29628       -2.29708        9.88780
H        -40.92303       -3.79518       10.91559
H        -39.89714        2.51573       14.10668
H        -40.60922        1.03147       14.78960
H        -42.63921        1.40170       13.34185
H        -41.91023        3.72802       15.18158
H        -42.59449        2.18521       15.69984
H        -43.54489        3.27830       14.69393
H        -41.57788        2.74635       11.55632
H        -41.27724        4.05573       12.69621
H        -42.93480        3.62307       12.26143
H        -41.90936       -0.83959       13.85151
H        -44.93706       -2.07047       16.32339
H        -45.65119        0.07014       17.42255
H        -47.18489       -0.06845       18.29426
H        -47.13151        0.75317       16.73779
H        -49.58882       -0.18236       16.21209
H        -49.66772       -1.07084       17.73145
H        -50.37658       -1.76606       16.26611
H        -47.85307       -5.76955       16.30388
H        -41.98169       -5.24195       12.30982
H        -43.22772       -6.57716       10.86048
H        -42.02071       -7.87990        9.06764
H        -42.36253       -9.61438        9.12012
H        -40.81920       -9.00767        9.71067
H        -40.82679      -10.93768       11.61654
H        -42.37072      -11.52025       10.99850
H        -42.04810      -11.55363       12.74022
H        -49.68572       -6.89276       16.56701
H        -51.46031       -6.45928       18.18729
H        -53.09366       -7.12450       18.43724
H        -51.87903       -6.58731       15.68515
H        -54.22191       -6.84386       14.91064
H        -54.73787       -7.19124       16.56475
H        -53.66419       -8.30628       15.72162
H        -52.15513       -4.46398       16.93422
H        -53.82873       -4.88617       17.30727
H        -53.34565       -4.57921       15.63832
H        -47.38946      -10.37620       15.60314
H        -49.11608      -11.82700       16.55307
H        -54.73493      -11.11419       17.90977
H        -56.60340      -12.62216       18.40966
H        -50.09811      -15.49541       18.45014
H        -51.66713      -16.28578       18.73902
H        -50.06241      -16.47392       20.63007
H        -49.45002      -14.53032       21.98501
H        -50.41899      -13.46044       20.97369
H        -48.97688      -14.22326       20.30954
H        -51.60289      -15.80250       22.45302
H        -52.47838      -16.58248       21.13945
H        -52.53789      -14.82419       21.32465
H        -53.90215      -15.82272       19.25544
H        -56.19696      -14.94501       19.09681
