218
d8a7.out	Energy:  -14736.5128428
C         -0.78274       -7.44216        1.70648
S         -2.45160       -7.86966        1.82584
C         -2.91591       -6.19483        1.66849
C         -4.22392       -5.72397        1.62386
C         -5.37700       -6.58959        1.71478
C         -6.55394       -6.49888        1.02142
C         -7.49644       -7.49290        1.35806
C         -8.85307       -7.60023        0.74112
C         -7.03083       -8.34800        2.31917
C         -7.74454       -9.50395        2.92442
S         -5.42161       -7.94297        2.80956
C         -4.37807       -4.32812        1.47034
C         -5.57691       -3.58608        1.50143
C         -0.57379       -6.11731        1.56143
C         -1.78063       -5.36006        1.54043
C         -1.93636       -3.97005        1.36571
C         -0.81533       -3.05845        1.26134
C         -0.71561       -1.93747        0.48569
C          0.48345       -1.21399        0.66809
C          0.82177        0.03947       -0.07105
C          1.30130       -1.78516        1.60187
C          2.63271       -1.30438        2.05953
S          0.60391       -3.22724        2.25802
C         -3.24262       -3.49253        1.32389
S         -3.70770       -1.81593        1.16782
C         -5.39544       -2.23553        1.34634
C         -6.39794       -1.22595        1.30887
C         -7.78121       -1.48275        1.42843
N         -8.34512       -2.68350        1.58457
S         -9.93839       -2.51414        1.67983
N        -10.01462       -0.91957        1.52549
C         -8.78116       -0.42781        1.39137
C         -6.07134        0.13208        1.13674
N         -4.83673        0.61776        0.98893
S         -4.91418        2.21213        0.81813
N         -6.50825        2.38065        0.91910
C         -7.06536        1.18092        1.09547
C         -8.44552        0.93440        1.22719
C         -9.39545        1.99077        1.19764
S         -8.87318        3.64036        0.96924
C        -10.52571        4.20466        1.03098
C        -10.92941        5.52822        0.91723
C         -9.96802        6.59521        0.75102
C         -8.79558        6.56913        0.04470
C         -8.05077        7.76456        0.11927
C         -6.74600        7.98034       -0.57536
C         -8.65561        8.70825        0.90361
C         -8.16920       10.08024        1.20992
S        -10.15447        8.13468        1.54696
C        -12.32432        5.76637        0.98910
C        -12.99326        6.99547        0.86008
C        -10.76119        1.89498        1.32414
C        -11.42793        3.13096        1.25633
C        -12.81915        3.37531        1.37422
C        -13.76614        2.32852        1.68586
C        -15.06032        2.20391        1.25714
C        -15.74677        1.10147        1.80751
C        -17.16431        0.75623        1.48673
C        -14.97071        0.38351        2.67571
C        -15.35416       -0.83274        3.44159
S        -13.38270        1.05373        2.81200
C        -13.22815        4.69228        1.20729
S        -14.87900        5.26283        1.27895
C        -14.35825        6.90504        0.99874
C        -15.30375        7.96296        0.93449
C        -16.68811        7.72652        1.04334
N        -17.25874        6.52970        1.19296
S        -18.85337        6.71227        1.27246
N        -18.91226        8.31020        1.12331
C        -17.67169        8.78489        1.00192
C        -14.95440        9.32350        0.77884
N        -13.71535        9.80410        0.65886
S        -13.77302       11.40196        0.52898
N        -15.36631       11.58526        0.61355
C        -15.94279       10.38877        0.74838
C        -17.33040       10.14385        0.85793
C        -18.31915       11.16341        0.84983
S        -20.01058       10.76592        1.02530
C        -20.44689       12.45557        0.91818
C        -21.73708       12.96316        0.96180
C        -22.90240       12.13165        1.15670
C        -24.02271       12.41326        1.89245
C        -24.99247       11.38947        1.87586
C        -26.29763       11.46271        2.59981
C        -24.60494       10.31871        1.11709
C        -25.36783        9.06703        0.86460
S        -23.03540       10.55648        0.42835
C        -21.86710       14.36819        0.81875
C        -23.05167       15.11829        0.72547
C        -18.11588       12.51849        0.72746
C        -19.29543       13.27803        0.79493
C        -19.42126       14.68916        0.74228
C        -18.24976       15.53390        0.69618
C        -17.05575       15.36298        1.34450
C        -16.09856       16.35819        1.05649
C        -14.72028       16.38285        1.63342
C        -16.57173       17.29696        0.18074
C        -15.84612       18.47733       -0.36039
S        -18.20476       16.96954       -0.28785
C        -20.71358       15.19225        0.73331
S        -21.14562       16.88270        0.63951
C        -22.84353       16.47553        0.63437
C        -23.82513       17.49873        0.55178
C        -23.46648       18.86084        0.54103
N        -22.21873       19.33085        0.58466
S        -22.25855       20.93634        0.57207
N        -23.85185       21.12814        0.51333
C        -24.43771       19.92948        0.49657
C        -25.21673       17.26181        0.48753
N        -25.80718       16.06492        0.47519
S        -27.39815       16.25706        0.37820
N        -27.43847       17.86183        0.35052
C        -26.19290       18.33731        0.41784
C        -25.82604       19.70155        0.43723
C        -26.75364       20.77804        0.40889
S        -26.19463       22.42802        0.53267
C        -27.83779       23.01829        0.46079
C        -28.22684       24.34182        0.60890
C        -27.28572       25.40966        0.85933
C        -27.43281       26.48354        1.69612
C        -26.32105       27.35135        1.71611
C        -26.24323       28.59039        2.54774
C        -25.31904       26.93208        0.88403
C        -24.00811       27.59248        0.64357
S        -25.73143       25.45741        0.07784
C        -29.61738       24.60287        0.53022
C        -30.26047       25.85390        0.55179
C        -28.12190       20.70117        0.29673
C        -28.76204       21.95319        0.29414
C        -30.15153       22.21519        0.20532
C        -31.09088       21.14730       -0.04827
C        -30.93295       20.06720       -0.87513
C        -32.04446       19.19969       -0.90424
C        -32.11125       17.95513       -1.72846
C        -33.05750       19.62477       -0.08846
C        -34.37221       18.96684        0.13741
S        -32.65549       21.10495        0.71292
C        -30.54030       23.54023        0.34583
S        -32.18103       24.13171        0.24645
C        -31.62601       25.77732        0.42430
C        -32.55449       26.85761        0.43039
C        -32.19123       28.20646        0.62449
N        -30.95952       28.68091        0.83354
S        -31.03206       30.27542        1.00090
N        -32.60898       30.47336        0.82516
C        -33.17946       29.27614        0.62200
C        -33.93299       26.64232        0.24737
N        -34.50868       25.45385        0.05320
S        -36.09043       25.66091       -0.10833
N        -36.15118       27.25215        0.05376
C        -34.90754       27.71892        0.24839
C        -34.53595       29.04307        0.43364
H         -0.04870       -8.22280        1.75176
H         -6.72685       -5.76311        0.25648
H         -9.02037       -6.77694        0.05225
H         -9.62488       -7.57661        1.50974
H         -8.95378       -8.53891        0.19657
H         -8.65340       -9.17079        3.42713
H         -7.10971      -10.00750        3.64826
H         -8.03364      -10.21898        2.15346
H         -6.54948       -4.00884        1.66518
H          0.40399       -5.68468        1.45998
H         -1.46831       -1.64872       -0.22530
H          0.00330        0.32121       -0.72728
H          1.72172       -0.09873       -0.67033
H          1.00817        0.85526        0.62666
H          3.31439       -1.20781        1.21372
H          3.06271       -1.99611        2.77903
H          2.54311       -0.32359        2.52857
H         -8.48684        5.72710       -0.54756
H         -6.46114        7.08853       -1.12606
H         -5.96302        8.21063        0.14653
H         -6.81465        8.81692       -1.27048
H         -7.19497       10.03990        1.69831
H         -8.86773       10.59536        1.86379
H         -8.05717       10.65829        0.29168
H        -12.51742        7.93654        0.66113
H        -11.24106        0.94307        1.44904
H        -15.50566        2.86457        0.53587
H        -17.59040        1.49983        0.81945
H        -17.76268        0.71781        2.39639
H        -17.22290       -0.22122        1.00803
H        -16.20102       -0.62044        4.09523
H        -14.52224       -1.17943        4.04870
H        -15.65067       -1.63322        2.76263
H        -24.13245       13.31353        2.47021
H        -26.40179       12.42449        3.09423
H        -26.36549       10.67436        3.34920
H        -27.12736       11.33411        1.90541
H        -25.57957        8.55402        1.80346
H        -24.80120        8.39931        0.22161
H        -26.32163        9.29105        0.38544
H        -24.03906       14.69826        0.69681
H        -17.13598       12.92620        0.56904
H        -16.87811       14.56788        2.04627
H        -14.55429       15.50481        2.25133
H        -14.57520       17.27370        2.24433
H        -13.97471       16.39857        0.83916
H        -16.51364       19.09346       -0.95641
H        -15.01251       18.15885       -0.98792
H        -15.44019       19.08032        0.45205
H        -28.29775       26.62754        2.31859
H        -27.17698       28.74663        3.08063
H        -26.04792       29.45964        1.92063
H        -25.43381       28.51507        3.27365
H        -23.41906       27.02096       -0.06826
H        -23.44752       27.67647        1.57527
H        -24.15362       28.59951        0.25097
H        -29.75516       26.79803        0.62533
H        -28.63023       19.75689        0.25271
H        -30.05937       19.91951       -1.48454
H        -31.17416       17.80127       -2.25619
H        -32.91778       18.02104       -2.45834
H        -32.30397       17.08853       -1.09676
H        -34.92836       18.89629       -0.79816
H        -34.96293       19.53232        0.85270
H        -34.23251       17.95459        0.51847
H        -35.25420       29.84366        0.43435
