222
d9a11.out	Energy:   -9535.5970518
C         14.90695       12.83630       -0.52864
C         13.60863       12.42430       -0.57655
C         13.51204       11.02336       -0.55723
C         14.74048       10.40316       -0.49507
S         16.03841       11.53148       -0.45919
C         14.59644        8.97637       -0.47744
C         13.21032        8.70887       -0.53143
C         12.40962        9.99904       -0.58678
C         11.59888       10.09091       -1.88272
C         11.49223       10.13290        0.63207
C         12.74379        7.41515       -0.52982
C         13.68814        6.39324       -0.47354
C         13.53647        4.97145       -0.45778
C         14.77308        4.34819       -0.39625
C         15.87556        5.37287       -0.36589
C         15.07480        6.66226       -0.41965
C         15.54094        7.95665       -0.42101
C         16.68689        5.27757        0.92924
C         16.79135        5.23784       -1.58571
C         14.68498        2.96182       -0.38058
C         13.36934        2.52769       -0.43084
S         12.22805        3.85444       -0.49746
C         12.88331        1.20690       -0.43609
C         11.54605        0.81427       -0.48985
N         10.49008        1.64550       -0.54006
C          9.30355        1.09599       -0.58388
C          8.13088        2.01781       -0.63506
C          9.12699       -0.32813       -0.58117
C          7.76507       -0.93648       -0.63028
N         10.14370       -1.15024       -0.53277
C         11.37024       -0.60155       -0.48503
C         12.57085       -1.30924       -0.42526
S         13.90930       -0.19770       -0.37685
C         12.71740       -2.70811       -0.40358
C         13.88614       -3.45121       -0.32886
C         13.63201       -4.81603       -0.32835
C         12.28021       -5.11896       -0.40412
S         11.28637       -3.71528       -0.47481
C         12.07904       -6.53255       -0.40194
C         13.35752       -7.13357       -0.31873
C         14.44894       -6.07871       -0.26577
C         15.38816       -6.19222       -1.46982
C         15.23898       -6.16402        1.04317
C         13.49209       -8.50071       -0.29507
C         12.32638       -9.26202       -0.35848
C         12.12569      -10.67554       -0.35740
C         10.77450      -10.97902       -0.44284
C          9.95732       -9.71643       -0.50562
C         11.04807       -8.66117       -0.44519
C         10.91340       -7.29395       -0.46639
C          9.01292       -9.60699        0.69477
C          9.17277       -9.62775       -1.81762
C         10.52145      -12.34391       -0.44984
C         11.69021      -13.08650       -0.36757
S         13.11982      -12.07849       -0.27966
C         11.83833      -14.48500       -0.35305
C         13.03818      -15.19109       -0.26131
N         14.26095      -14.64082       -0.16356
C         15.27703      -15.46182       -0.08621
C         16.63464      -14.85182        0.02361
C         15.10355      -16.88591       -0.10489
C         16.27485      -17.80644       -0.01577
N         13.92038      -17.43686       -0.19968
C         12.86566      -16.60685       -0.27937
C         11.53175      -17.00173       -0.38581
S         10.50446      -15.59837       -0.45878
C         11.05297      -18.32319       -0.43692
C          9.74156      -18.76267       -0.54372
C          9.66125      -20.14832       -0.57216
C         10.90001      -20.76753       -0.48833
S         12.19960      -19.64536       -0.36975
C         10.75805      -22.18745       -0.52616
C          9.37459      -22.46407       -0.63613
C          8.56761      -21.17777       -0.67470
C          7.60773      -21.08886        0.51494
C          7.80271      -21.04417       -1.99457
C          8.91881      -23.75896       -0.69570
C          9.86905      -24.77751       -0.64588
C          9.72892      -26.19795       -0.68747
C         10.96951      -26.81500       -0.61288
C         12.06186      -25.78494       -0.50898
C         11.25270      -24.50021       -0.53856
C         11.70837      -23.20562       -0.47668
C         13.01675      -25.86610       -1.70327
C         12.83249      -25.92451        0.80688
C         10.89329      -28.20028       -0.65238
C          9.58281      -28.64298       -0.75634
S          8.43205      -27.32385       -0.80574
C          9.11373      -29.96726       -0.82228
C          7.78325      -30.37698       -0.91396
N          6.71684      -29.55921       -0.95570
C          5.53923      -30.12348       -1.03968
C          4.35493      -29.21656       -1.08741
C          5.38338      -31.54922       -1.08450
C          4.03117      -32.17405       -1.17632
N          6.41083      -32.35855       -1.04738
C          7.62865      -31.79455       -0.96245
C          8.83905      -32.48608       -0.91148
S         10.15973      -31.35796       -0.79946
C          9.01292      -33.88169       -0.94506
C         10.19818      -34.60046       -0.89975
C          9.97511      -35.96953       -0.95664
C          8.63073      -36.29982       -1.04490
S          7.60543      -34.91702       -1.05984
C          8.46221      -37.71738       -1.09654
C          9.75437      -38.29095       -1.03790
C         10.82133      -37.21412       -0.94697
C         11.75681      -37.25769       -2.15859
C         11.61989      -37.33264        0.35412
C          9.92070      -39.65483       -1.06288
C          8.77280      -40.43983       -1.14623
C          8.60402      -41.85861       -1.18076
C          7.26036      -42.18993       -1.25912
C          6.41429      -40.94518       -1.29138
C          7.48092      -39.86703       -1.20699
C          7.31450      -38.50287       -1.18349
C          5.46652      -40.88456       -0.09051
C          5.62919      -40.84326       -2.60239
C          7.03886      -43.56205       -1.28463
C          8.22327      -44.27669       -1.22616
S          9.62983      -43.23925       -1.14109
C          8.40422      -45.67702       -1.22273
C          9.62091      -46.35199       -1.17494
N         10.82946      -45.76473       -1.13324
C         11.87038      -46.55313       -1.09346
C         13.21401      -45.90508       -1.05345
C         11.73255      -47.98610       -1.09091
C         12.94075      -48.86255       -1.04063
N         10.57222      -48.57934       -1.13223
C          9.47661      -47.78123       -1.17748
C          8.16183      -48.17446       -1.22797
S          7.10543      -46.82319       -1.27221
H         15.28186       13.84075       -0.52959
H         12.77465       13.10155       -0.62305
H         12.25556        9.99431       -2.74462
H         11.08847       11.04975       -1.93872
H         10.85751        9.29657       -1.92010
H         12.07345       10.06610        1.54921
H         10.74929        9.33912        0.63304
H         10.98018       11.09230        0.61262
H         11.69040        7.18242       -0.57040
H         16.59490        8.18808       -0.38055
H         17.43317        6.06742        0.96573
H         17.19133        4.31568        0.98483
H         16.03145        5.37809        1.79156
H         16.20975        5.31091       -2.50208
H         17.29673        4.27498       -1.56929
H         17.53963        6.02662       -1.58486
H         15.51206        2.27556       -0.33603
H          8.48720        3.04421       -0.62563
H          7.47908        1.85294        0.22199
H          7.54891        1.84545       -1.53962
H          7.22881       -0.60446       -1.51819
H          7.18551       -0.64141        0.24384
H          7.86171       -2.01834       -0.64895
H         14.85542       -2.98762       -0.27786
H         14.82044       -6.13427       -2.39589
H         15.91854       -7.14096       -1.44598
H         16.11488       -5.38324       -1.45508
H         14.56568       -6.08682        1.89404
H         15.96308       -5.35435        1.09684
H         15.76758       -7.11216        1.10305
H         14.45518       -8.98425       -0.23099
H          9.95031       -6.81044       -0.53096
H          9.57678       -9.66707        1.62306
H          8.28684      -10.41643        0.67474
H          8.48198       -8.65855        0.67124
H          9.84945       -9.70389       -2.66590
H          8.64520       -8.67905       -1.87784
H          8.44821      -10.43671       -1.87582
H          9.55305      -12.80816       -0.51063
H         16.53732      -13.76988        0.02081
H         17.26043      -15.16089       -0.81246
H         17.12187      -15.16876        0.94464
H         16.95853      -17.63501       -0.84616
H         15.92083      -18.83319       -0.04581
H         16.82179      -17.63928        0.91126
H          8.91279      -18.07902       -0.59652
H          8.15655      -21.18830        1.44884
H          6.86649      -21.88237        0.46108
H          7.09571      -20.12938        0.51177
H          8.48969      -21.11117       -2.83532
H          7.29304      -20.08435       -2.03634
H          7.06488      -21.83758       -2.08449
H          7.86921      -23.99745       -0.77913
H         12.75796      -22.96701       -0.39395
H         12.46369      -25.76218       -2.63419
H         13.52988      -26.82498       -1.70766
H         13.75725      -25.07199       -1.64834
H         12.14911      -25.86206        1.65090
H         13.57017      -25.13103        0.89741
H         13.34298      -26.88417        0.84172
H         11.72452      -28.88163       -0.60966
H          4.69701      -28.18600       -1.05097
H          3.69384      -29.40777       -0.24308
H          3.78765      -29.37773       -2.00308
H          3.52617      -31.85720       -2.08794
H          3.41488      -31.87704       -0.32884
H          4.14064      -33.25492       -1.18253
H         11.15670      -34.11757       -0.82882
H         11.18316      -37.17635       -3.07922
H         12.30920      -38.19394       -2.17469
H         12.46457      -36.43312       -2.11471
H         10.94936      -37.30608        1.21024
H         12.32436      -36.50828        0.43719
H         12.17177      -38.26913        0.37368
H         10.89502      -40.11758       -1.01822
H          6.34010      -38.04021       -1.22752
H          6.03026      -40.95514        0.83708
H          4.75744      -41.70814       -0.13134
H          4.91575      -39.94722       -0.09216
H          6.30814      -40.88646       -3.45118
H          5.08258      -39.90430       -2.64197
H          4.92126      -41.66521       -2.67981
H          6.07998      -44.04622       -1.34108
H         13.08571      -44.82609       -1.05438
H         13.80498      -46.19875       -1.92020
H         13.75726      -46.20403       -0.15795
H         13.51961      -48.66181       -0.14039
H         13.58087      -48.67759       -1.90201
H         12.62698      -49.90237       -1.04239
H          7.76342      -49.16768       -1.24111
