298
d9a10.out	Energy:   -9487.7461148
C         17.41654      -39.26576      -13.63211
C         16.49193      -38.29317      -13.87097
C         16.80476      -37.10685      -13.18755
C         17.96085      -37.20665      -12.44494
S         18.68529      -38.76158      -12.57303
C         18.24410      -35.97530      -11.76658
C         17.21005      -35.07603      -12.11133
C         16.20780      -35.73267      -13.04516
C         14.81729      -35.79358      -12.40600
C         16.14880      -35.00761      -14.39269
C         17.19983      -33.79377      -11.61432
C         18.24162      -33.42838      -10.76620
C         18.51734      -32.19350      -10.09589
C         19.67826      -32.29918       -9.34337
C         20.27448      -33.67485       -9.48242
C         19.27379      -34.32851      -10.41977
C         19.28431      -35.61133      -10.91815
C         21.66626      -33.61092      -10.11902
C         20.33063      -34.40177       -8.13609
C         20.00095      -31.12736       -8.67609
C         19.08362      -30.11198       -8.91693
S         17.78383      -30.65466       -9.97252
C         19.00664      -28.77575       -8.44134
C         17.86937      -27.97505       -8.49488
C         16.50357      -27.94601       -8.93369
O         15.81904      -28.75501       -9.53497
N         16.02026      -26.68777       -8.51460
C         14.68367      -26.29535       -8.87510
C         14.64376      -25.31163      -10.05663
C         15.20265      -25.96990      -11.31444
C         13.20709      -24.84863      -10.28217
C         16.98999      -25.96074       -7.85096
C         18.13783      -26.74794       -7.83390
C         19.49413      -26.78751       -7.37237
O         20.16196      -25.98835       -6.73827
N         19.98420      -28.04250       -7.79571
C         21.39492      -28.30133       -7.65777
C         22.22532      -27.92932       -8.90299
C         21.94135      -28.83325      -10.09980
C         22.00630      -26.46785       -9.28670
C         16.87040      -24.67045       -7.27456
C         15.81089      -23.76990       -7.23188
C         16.14527      -22.59391       -6.57926
C         17.44964      -22.58626       -6.10427
S         18.29726      -24.02760       -6.46405
C         17.73833      -21.34218       -5.45945
C         16.57640      -20.54191       -5.55947
C         15.45981      -21.29045       -6.26635
C         15.02636      -20.57101       -7.54669
C         14.26282      -21.49829       -5.33352
C         16.56099      -19.26118       -5.06048
C         17.72434      -18.79925       -4.44913
C         18.04480      -17.53465       -3.86780
C         19.33630      -17.53098       -3.36496
C         19.98424      -18.86951       -3.59150
C         18.87660      -19.61089       -4.31900
C         18.89413      -20.88750       -4.82887
C         20.31963      -19.54641       -2.25873
C         21.23999      -18.73741       -4.45684
C         19.70375      -16.31803       -2.80031
C         18.69950      -15.36330       -2.89185
S         17.26310      -16.02364       -3.66456
C         18.80408      -14.05033       -2.36380
C         19.75936      -13.63337       -1.43682
C         20.90709      -14.06494       -0.68563
O         21.55909      -15.09528       -0.69545
N         21.23112      -12.96609        0.13305
C         22.31414      -13.06987        1.07486
C         21.83600      -13.34928        2.50897
C         21.16373      -14.71589        2.59407
C         23.02552      -13.26606        3.46000
C         20.39305      -11.89534       -0.08701
C         19.47294      -12.29195       -1.05916
C         18.31398      -11.86981       -1.79611
O         17.67573      -10.82956       -1.80115
N         17.96847      -12.97891       -2.59210
C         16.93089      -12.83019       -3.58097
C         17.44524      -12.37214       -4.96127
C         18.21693      -11.05895       -4.85611
C         18.30329      -13.43014       -5.64929
C         20.46004      -10.60961        0.50277
C         19.64883       -9.54566        0.12428
C         19.93121       -8.38606        0.82793
C         20.94375       -8.54075        1.76372
S         21.58131      -10.13034        1.77332
C         21.18013       -7.31896        2.46579
C         20.29061       -6.35964        1.92466
C         19.42159       -6.97157        0.84133
C         19.65025       -6.29299       -0.51231
C         17.93883       -6.92320        1.22101
C         20.28733       -5.06643        2.39000
C         21.17279       -4.75372        3.41823
C         21.39832       -3.52655        4.11692
C         22.35679       -3.70042        5.10611
C         22.86657       -5.11765        5.10386
C         22.04166       -5.71862        3.97852
C         22.06022       -7.00750        3.50019
C         22.57882       -5.81967        6.43401
C         24.36335       -5.16522        4.78257
C         22.60508       -2.54474        5.83037
C         21.84443       -1.46866        5.38416
S         20.80974       -1.92407        4.03336
C         21.76023       -0.12093        5.81810
C         21.03926        0.88580        5.18162
C         20.24728        1.17317        4.02072
O         19.85122        0.47153        3.10632
N         19.96993        2.55400        4.10923
C         19.08595        3.15463        3.14484
C         17.71270        3.51819        3.72972
C         16.86472        4.18353        2.64949
C         17.02178        2.26907        4.26902
C         20.51472        3.11098        5.24940
C         21.17043        2.08746        5.92540
C         21.97664        1.80558        7.07837
O         22.31718        2.49264        8.02497
N         22.32736        0.44531        6.94294
C         23.19110       -0.16362        7.91914
C         24.65262       -0.25799        7.44789
C         25.24330        1.13601        7.25955
C         25.46381       -1.05464        8.46619
C         20.46136        4.46765        5.66040
C         20.06369        5.61592        4.98507
C         20.18218        6.75297        5.76920
C         20.65800        6.48631        7.04589
S         21.00563        4.82962        7.29350
C         20.73008        7.69203        7.81326
C         20.29426        8.74509        6.97588
C         19.91547        8.22485        5.60045
C         20.80970        8.83171        4.51525
C         18.43903        8.49154        5.29369
C         20.25044       10.03895        7.43904
C         20.63817       10.25903        8.75810
C         20.69301       11.46199        9.53167
C         21.12546       11.19021       10.82216
C         21.40723        9.72036       10.98581
C         21.06243        9.20485        9.59938
C         21.11792        7.91258        9.13245
C         20.49636        9.09621       12.04741
C         22.87947        9.46676       11.32188
C         21.17506       12.31985       11.62603
C         20.78736       13.46571       10.94549
S         20.38404       13.12287        9.27131
C         20.72220       14.82660       11.35914
C         20.78652       15.91812       10.50743
C         20.90331       16.29425        9.12570
O         20.89646       15.65366        8.08942
N         21.00891       17.70397        9.16544
C         21.20580       18.49016        7.97741
C         22.68698       18.56492        7.57014
C         22.80872       19.26779        6.22156
C         23.51240       19.28601        8.63173
C         20.96317       18.17073       10.44267
C         20.81861       17.11421       11.29618
C         20.72994       16.72534       12.68283
O         20.72939       17.36621       13.71151
N         20.65693       15.31041       12.65083
C         20.35155       14.61238       13.87429
C         18.85036       14.32356       14.07514
C         18.02969       15.60713       13.97749
C         18.31223       13.27829       13.10150
H         17.43664      -40.26637      -14.01671
H         15.63608      -38.43402      -14.50642
H         14.43398      -34.78948      -12.24305
H         14.12950      -36.33054      -13.05524
H         14.86569      -36.30693      -11.44809
H         17.13962      -34.96257      -14.83964
H         15.48302      -35.53421      -15.07261
H         15.78152      -33.99331      -14.25830
H         16.42307      -33.08566      -11.85949
H         20.06119      -36.31874      -10.66935
H         21.62036      -33.08622      -11.07085
H         22.35605      -33.08478       -9.46281
H         22.04761      -34.61394      -10.29309
H         20.99689      -33.87851       -7.45398
H         19.33927      -34.44512       -7.69071
H         20.69599      -35.41678       -8.27079
H         20.84586      -31.03082       -8.02133
H         14.17841      -27.22101       -9.17059
H         14.16909      -25.88611       -8.00138
H         15.26679      -24.44227       -9.81862
H         14.63543      -26.86460      -11.55970
H         15.15349      -25.28251      -12.15600
H         16.24124      -26.25828      -11.16932
H         12.80907      -24.35772       -9.39584
H         13.16134      -24.14585      -11.11051
H         12.57014      -25.69834      -10.51707
H         21.72139      -27.66335       -6.82937
H         21.57075      -29.34010       -7.38086
H         23.27443      -28.05956       -8.61272
H         20.90854      -28.73175      -10.42487
H         22.58522      -28.55490      -10.93132
H         22.12666      -29.87752       -9.86062
H         22.14921      -25.81687       -8.42822
H         22.70361      -26.17518      -10.06844
H         20.99496      -26.31863       -9.66054
H         14.84437      -23.95485       -7.65716
H         14.28201      -21.16198       -8.07544
H         14.59664      -19.60137       -7.30808
H         15.88183      -20.42080       -8.20151
H         13.50059      -22.09588       -5.82824
H         14.57669      -22.01305       -4.42816
H         13.83016      -20.54022       -5.05631
H         15.69200      -18.62447       -5.13504
H         19.76155      -21.52539       -4.75639
H         20.74653      -20.53083       -2.43333
H         21.03547      -18.94175       -1.70746
H         19.42103      -19.65830       -1.65558
H         20.99863      -18.25732       -5.40299
H         21.98363      -18.13660       -3.93923
H         21.66083      -19.71842       -4.66207
H         20.64905      -16.11075       -2.33288
H         22.92560      -13.91135        0.73344
H         22.91969      -12.16004        1.04549
H         21.10567      -12.58373        2.79241
H         21.85308      -15.49796        2.28464
H         20.84211      -14.91727        3.61336
H         20.29128      -14.75937        1.94598
H         23.47523      -12.27623        3.42483
H         22.70787      -13.46315        4.48081
H         23.77985      -14.00048        3.18682
H         16.36668      -13.75824       -3.67961
H         16.26424      -12.05443       -3.19007
H         16.55079      -12.20224       -5.57129
H         19.16245      -11.21084       -4.33863
H         18.43195      -10.66914       -5.84858
H         17.64455      -10.31715       -4.30565
H         17.73826      -14.34426       -5.81411
H         18.64138      -13.05996       -6.61465
H         19.18231      -13.66446       -5.05202
H         18.88934       -9.64519       -0.62994
H         19.07878       -6.80430       -1.28294
H         19.33498       -5.25357       -0.47004
H         20.70464       -6.32619       -0.77869
H         17.35102       -7.45842        0.47946
H         17.78205       -7.38801        2.19213
H         17.59537       -5.89294        1.26863
H         19.62805       -4.31137        1.99043
H         22.71998       -7.76159        3.90287
H         22.88588       -6.86137        6.38485
H         23.12289       -5.33334        7.24042
H         21.51499       -5.78090        6.65740
H         24.56063       -4.66642        3.83629
H         24.93121       -4.66656        5.56471
H         24.70074       -6.19606        4.70917
H         23.31468       -2.49026        6.63214
H         19.56201        4.02720        2.68822
H         18.95292        2.39437        2.36759
H         17.85151        4.22341        4.55637
H         16.71026        3.50103        1.81685
H         15.89327        4.46290        3.04969
H         17.34935        5.08170        2.27171
H         17.60104        1.82561        5.07610
H         16.03564        2.51768        4.65430
H         16.91199        1.52640        3.48203
H         23.14722        0.48628        8.79939
H         22.80014       -1.14726        8.19301
H         24.68248       -0.77412        6.48155
H         25.19188        1.69984        8.18784
H         26.28340        1.06792        6.94847
H         24.69494        1.68743        6.49932
H         25.06130       -2.05839        8.59136
H         26.49843       -1.13990        8.14292
H         25.44631       -0.55705        9.43312
H         19.72558        5.62583        3.96709
H         20.57124        8.39867        3.54654
H         20.66147        9.90728        4.46366
H         21.85623        8.63523        4.73721
H         18.16814        8.04676        4.33891
H         17.80991        8.06144        6.06986
H         18.25118        9.56110        5.24685
H         19.92853       10.86310        6.82096
H         21.44291        7.08873        9.74927
H         20.65293        8.02160       12.09283
H         20.71212        9.52187       13.02481
H         19.45266        9.28572       11.80601
H         23.52030        9.91384       10.56527
H         23.12462        9.90175       12.28806
H         23.07808        8.39875       11.35881
H         21.51626       12.31514       12.64414
H         20.64090       18.00739        7.17435
H         20.80921       19.49500        8.14505
H         23.05396       17.53829        7.46989
H         22.42305       20.28346        6.28529
H         23.85022       19.31574        5.91378
H         22.24983       18.73276        5.45778
H         23.44918       18.77473        9.58999
H         24.55811       19.32019        8.33570
H         23.16040       20.30844        8.75847
H         21.02817       19.22246       10.65104
H         20.92322       13.68747       13.94368
H         20.68023       15.28405       14.67443
H         18.75699       13.92647       15.09258
H         18.03291       15.98672       12.95730
H         16.99829       15.41728       14.26528
H         18.43763       16.37678       14.62749
H         18.88186       12.35365       13.16072
H         17.27394       13.05583       13.33782
H         18.35279       13.64443       12.07827
