194
d9a3.out	Energy:  -17302.4085080
C         -3.86866        5.49992       -1.70065
C         -3.93034        4.14924       -1.87336
C         -2.66426        3.55569       -1.74274
C         -1.66995        4.46980       -1.47205
S         -2.27378        6.07782       -1.37180
C         -0.39648        3.82249       -1.34667
C         -0.62135        2.44254       -1.55041
C         -2.09113        2.16599       -1.81912
C         -2.29457        1.55615       -3.20899
C         -2.68914        1.25815       -0.74046
C          0.41933        1.54488       -1.49218
C          1.68883        2.05132       -1.22599
C          2.95727        1.40001       -1.09952
C          3.95432        2.32216       -0.82511
C          3.37971        3.71168       -0.75041
C          1.91197        3.43199       -1.02192
C          0.87090        4.32979       -1.08075
C          3.57941        4.32210        0.63967
C          3.97888        4.61961       -1.82822
C          5.20969        1.74187       -0.69015
C          5.17567        0.36695       -0.86254
S          3.55608       -0.20624       -1.19763
C          6.26942       -0.55029       -0.79379
C          7.57940       -0.16095       -0.51801
N          8.63188       -0.95916       -0.44163
C          8.51748       -2.26606       -0.63250
C          7.23574       -2.82407       -0.92460
C          6.09583       -1.94646       -1.00470
N          4.95434       -2.56039       -1.27956
Se         5.24962       -4.28036       -1.45259
N          6.96705       -4.10093       -1.13694
C          9.69309       -3.06525       -0.53677
C         10.97049       -2.60255       -0.25305
C         11.90240       -3.62916       -0.23235
C         11.34354       -4.87287       -0.49920
S          9.65100       -4.79299       -0.77958
C         12.34471       -5.89204       -0.46872
C         13.57414       -5.25803       -0.17061
C         13.38346       -3.76138        0.00442
C         14.18339       -2.97461       -1.03768
C         13.75969       -3.31607        1.42045
C         14.73629       -5.98677       -0.07451
C         14.65195       -7.36198       -0.28238
C         15.65259       -8.38359       -0.25903
C         15.09156       -9.62203       -0.53139
C         13.61000       -9.49078       -0.76092
C         13.42162       -7.99495       -0.58063
C         12.25969       -7.26731       -0.67564
C         12.81416      -10.27894        0.28339
C         13.22554       -9.93128       -2.17622
C         16.02072      -10.65407       -0.52564
C         17.30327      -10.20704       -0.24666
S         17.34681       -8.47704        0.01236
C         18.49782      -10.98710       -0.16302
C         18.52643      -12.36426       -0.37932
N         19.59434      -13.14218       -0.31825
C         20.78981      -12.64657       -0.02923
C         20.92850      -11.24728        0.21993
C         19.75910      -10.40797        0.14927
N         19.99251       -9.12704        0.39470
Se        21.69997       -8.90418        0.72785
N         22.04870      -10.61147        0.51768
C         21.89217      -13.54762        0.01826
C         21.83014      -14.91347       -0.22138
C         23.07080      -15.51930       -0.09899
C         24.08090      -14.62472        0.23390
S         23.50910      -13.01313        0.39944
C         25.33438      -15.30212        0.34938
C         25.09344      -16.66979        0.07629
C         23.62660      -16.91175       -0.23227
C         22.99361      -17.86122        0.78888
C         23.43961      -17.44844       -1.65429
C         26.11797      -17.58585        0.11116
C         27.39074      -17.11447        0.42523
C         28.64355      -17.79268        0.54512
C         29.65111      -16.90201        0.88351
C         29.09855      -15.50747        1.01268
C         27.63182      -15.74713        0.69926
C         26.60788      -14.83080        0.66309
C         29.73494      -14.56053       -0.00884
C         29.27936      -14.96658        2.43387
C         30.89248      -17.51090        1.01573
C         30.83832      -18.87599        0.77675
S         29.21728      -19.40332        0.38172
C         31.91483      -19.81473        0.82425
C         33.22381      -19.46262        1.15100
N         34.26048      -20.28215        1.21157
C         34.13044      -21.57556        0.95099
C         32.84812      -22.09571        0.59943
C         31.72472      -21.19544        0.53775
N         30.58092      -21.77485        0.20390
Se        30.85239      -23.48890       -0.04764
N         32.56428      -23.35519        0.31432
C         35.29336      -22.39489        1.03576
C         36.56513      -21.95849        1.37905
C         37.48837      -22.99260        1.37254
C         36.93019      -24.21689        1.02538
S         35.24617      -24.10711        0.70206
C         37.92614      -25.24328        1.03175
C         39.14844      -24.63076        1.39799
C         38.96041      -23.14502        1.64525
C         39.79468      -22.31013        0.66963
C         39.29670      -22.77701        3.09324
C         40.30528      -25.36736        1.49063
C         40.22252      -26.72890        1.21009
C         41.22201      -27.75126        1.21307
C         40.67115      -28.97463        0.86305
C         39.19683      -28.82903        0.59386
C         39.00185      -27.34314        0.84373
C         37.84447      -26.60622        0.75197
C         38.36880      -29.66893        1.57060
C         38.85839      -29.19669       -0.85369
C         41.60392      -30.00406        0.84928
C         42.87479      -29.56730        1.18999
S         42.90451      -27.85216        1.53228
C         44.07330      -30.34502        1.27738
C         44.12100      -31.70973        1.01779
N         45.21167      -32.47587        1.08551
C         46.36414      -31.96405        1.41774
C         46.49503      -30.59066        1.71521
C         45.31951      -29.75896        1.64332
N         45.53215      -28.48497        1.93831
Se        47.22794      -28.26182        2.31984
N         47.60486      -29.94965        2.06478
H         -4.67228        6.20843       -1.74358
H         -4.84293        3.62078       -2.08334
H         -1.81059        0.58449       -3.26856
H         -3.35585        1.43210       -3.41213
H         -1.86715        2.20490       -3.97050
H         -2.54078        1.69617        0.24422
H         -3.75614        1.12982       -0.90787
H         -2.21123        0.28191       -0.76219
H          0.27473        0.48592       -1.64418
H          1.01644        5.38881       -0.92834
H          3.14373        3.67703        1.39952
H          4.64029        4.43942        0.84842
H          3.10172        5.29720        0.69572
H          5.04683        4.74254       -1.66332
H          3.82595        4.18474       -2.81352
H          3.50580        5.59823       -1.80279
H          6.11257        2.28439       -0.47738
H          7.80748        0.88098       -0.34236
H         11.15981       -1.55997       -0.07818
H         13.97247       -1.91198       -0.94522
H         15.24912       -3.13515       -0.89498
H         13.91395       -3.29748       -2.04084
H         13.54239       -2.25847        1.54886
H         13.19077       -3.88061        2.15585
H         14.81932       -3.48140        1.59868
H         15.68632       -5.52672        0.15158
H         11.30944       -7.72663       -0.90199
H         11.74784      -10.12049        0.14302
H         13.02566      -11.34174        0.19163
H         13.08516       -9.95476        1.28575
H         13.78703       -9.36098       -2.91292
H         13.44493      -10.98773       -2.31213
H         12.16410       -9.76925       -2.34622
H         15.78661      -11.68582       -0.71330
H         17.61540      -12.89205       -0.62390
H         20.90232      -15.39412       -0.46922
H         21.92654      -17.95271        0.60137
H         23.44822      -18.84637        0.72026
H         23.13898      -17.48024        1.79728
H         22.38035      -17.53280       -1.88462
H         23.90036      -16.77541       -2.37395
H         23.89946      -18.42880       -1.75088
H         25.95957      -18.63382       -0.09351
H         26.76571      -13.78276        0.86790
H         29.27311      -13.57813        0.04959
H         30.79987      -14.45924        0.18687
H         29.60086      -14.94870       -1.01610
H         28.82349      -15.64214        3.15431
H         30.33736      -14.87099        2.66654
H         28.81057      -13.99024        2.52773
H         31.80008      -16.99597        1.27224
H         33.46483      -18.43529        1.38535
H         36.75700      -20.92821        1.61343
H         39.58195      -21.25285        0.80744
H         40.85503      -22.48019        0.83886
H         39.55782      -22.58262       -0.35643
H         39.07625      -21.72747        3.27199
H         38.70716      -23.37919        3.78100
H         40.35084      -22.95353        3.29208
H         41.24938      -24.92368        1.76797
H         36.90047      -27.05005        0.47442
H         37.30760      -29.49660        1.40990
H         38.57790      -30.72618        1.42542
H         38.61323      -29.40289        2.59659
H         39.44935      -28.59686       -1.54228
H         39.07413      -30.24732       -1.03317
H         37.80478      -29.01681       -1.05167
H         41.38129      -31.02634        0.60440
H         43.22614      -32.24373        0.73337
H         47.21597      -32.62667        1.45749
