238
d9a4.out	Energy:  -10278.1089719
C         -3.35357        6.14625        0.69193
C         -3.56121        4.79912        0.70654
C         -2.34932        4.09094        0.66400
C         -1.24819        4.91773        0.61794
S         -1.68250        6.58222        0.62612
C         -0.03443        4.15610        0.57572
C         -0.40931        2.79375        0.59723
C         -1.92080        2.64806        0.65467
C         -2.45270        1.91812       -0.58206
C         -2.35891        1.92911        1.93381
C          0.54312        1.80229        0.56669
C          1.87852        2.19613        0.51377
C          3.08506        1.43044        0.47191
C          4.19109        2.26802        0.42421
C          3.76077        3.71023        0.43255
C          2.25116        3.56049        0.49166
C          1.29809        4.55174        0.52269
C          4.29541        4.44129        1.66724
C          4.19810        4.42674       -0.84813
C          5.39414        1.58211        0.38164
C          5.21989        0.20415        0.39653
S          3.51909       -0.23109        0.46621
C          6.21505       -0.81210        0.36423
C          5.85115       -2.17666        0.39818
N          4.59894       -2.62974        0.45819
S          4.61518       -4.23530        0.47898
N          6.20750       -4.44821        0.41340
C          6.80934       -3.25820        0.37156
C          7.60998       -0.56354        0.29754
N          8.07077        0.70398        0.25175
C          9.35287        0.94165        0.19097
C          9.79192        2.36820        0.13779
C         10.29488       -0.12664        0.17453
C         11.76628        0.10507        0.11073
N          9.87153       -1.35909        0.21536
C          8.55705       -1.63657        0.27452
C          8.19636       -3.00465        0.30995
C          9.18434       -4.02208        0.28346
C          8.98427       -5.39859        0.30346
C         10.17671       -6.10335        0.26589
C         11.29228       -5.27592        0.21915
S         10.88287       -3.60424        0.21716
C         12.48723       -6.04951        0.18261
C         12.10980       -7.41460        0.20449
C         10.59679       -7.55032        0.26128
C         10.15203       -8.26047        1.54287
C         10.05782       -8.27975       -0.97234
C         13.06041       -8.40617        0.17556
C         14.40018       -8.01659        0.12677
C         15.60493       -8.78107        0.08938
C         16.71029       -7.93780        0.05177
C         16.28149       -6.49707        0.06042
C         14.77295       -6.64885        0.10890
C         13.82437       -5.65792        0.13527
C         16.72854       -5.77749       -1.21516
C         16.80750       -5.76943        1.30088
C         17.91531       -8.61586        0.01712
C         17.74408       -9.99531        0.02584
S         16.05210      -10.44621        0.07710
C         18.76268      -10.98098        0.00009
C         20.14212      -10.67001       -0.02752
N         20.67816       -9.44877       -0.03532
S         22.27998       -9.57047       -0.06697
N         22.38764      -11.17357       -0.07252
C         21.16183      -11.69872       -0.04969
C         18.45248      -12.36037        0.00116
N         17.15604      -12.71819        0.02304
C         16.82041      -13.97991        0.02229
C         15.36647      -14.31105        0.04299
C         17.82486      -14.99269       -0.00049
C         17.48297      -16.44430       -0.00422
N         19.08883      -14.66697       -0.02095
C         19.45718      -13.37326       -0.02181
C         20.83885      -13.07525       -0.04628
C         21.81466      -14.10392       -0.06590
C         23.19563      -13.94815       -0.09286
C         23.85999      -15.16178       -0.10626
C         23.00311      -16.25676       -0.08916
S         21.34375      -15.79076       -0.05720
C         23.75116      -17.47171       -0.10476
C         25.12345      -17.11737       -0.13353
C         25.29497      -15.60999       -0.13543
C         26.00055      -15.13168       -1.40750
C         26.05046      -15.13501        1.10898
C         26.10059      -18.08053       -0.15574
C         25.68884      -19.41234       -0.14822
C         26.44215      -20.62073       -0.16736
C         25.59953      -21.72619       -0.14922
C         24.15995      -21.28290       -0.11465
C         24.31912      -19.77123       -0.11777
C         23.34168      -18.80612       -0.09618
C         23.46277      -21.76338        1.16120
C         23.40237      -21.76313       -1.35559
C         26.28476      -22.92963       -0.16837
C         27.66448      -22.75462       -0.20211
S         28.10159      -21.05354       -0.20927
C         28.68713      -23.74123       -0.23134
C         30.04634      -23.35588       -0.27070
N         30.48009      -22.09584       -0.28017
S         32.08530      -22.08543       -0.32897
N         32.32117      -23.67549       -0.34097
C         31.14074      -24.29700       -0.30675
C         28.45878      -25.14168       -0.22529
N         27.19817      -25.62080       -0.18547
C         26.98113      -26.90856       -0.17750
C         25.56204      -27.37180       -0.13134
C         28.06346      -27.83433       -0.21075
C         27.85291      -29.31038       -0.19991
N         29.29010      -27.39353       -0.25157
C         29.54570      -26.07283       -0.26046
C         30.90686      -25.68873       -0.30393
C         31.94461      -26.65462       -0.34086
C         33.31302      -26.41233       -0.37780
C         34.05184      -27.58290       -0.40777
C         33.26237      -28.72676       -0.39607
S         31.57828      -28.36606       -0.34396
C         34.08019      -29.89509       -0.42564
C         35.42934      -29.46293       -0.45520
C         35.51125      -27.94694       -0.44818
C         36.17944      -27.42014       -1.72128
C         36.24481      -27.43555        0.79484
C         36.45890      -30.37098       -0.48183
C         36.12340      -31.72450       -0.47856
C         36.94317      -32.89196       -0.49203
C         36.15626      -34.03742       -0.47641
C         34.69554      -33.67420       -0.45625
C         34.77520      -32.15752       -0.45287
C         33.74524      -31.24909       -0.42636
C         34.00975      -34.19853        0.80822
C         33.97989      -34.18808       -1.70885
C         36.90122      -35.20536       -0.47948
C         38.26832      -34.95738       -0.49722
S         38.62737      -33.24399       -0.51361
C         39.31750      -35.91513       -0.49663
C         39.09743      -37.31066       -0.47217
N         37.92372      -37.94541       -0.45178
S         38.18573      -39.53105       -0.42686
N         39.78704      -39.51602       -0.43997
C         40.20820      -38.24394       -0.46521
C         40.67074      -35.50895       -0.51655
N         40.92987      -34.18847       -0.54386
C         42.16158      -33.76268       -0.56188
C         42.38622      -32.28902       -0.59569
C         43.24744      -34.69726       -0.55134
C         44.66524      -34.23075       -0.56946
N         43.03406      -35.98099       -0.52624
C         41.75738      -36.44321       -0.50876
C         41.52884      -37.81344       -0.48258
H         -4.08695        6.92798        0.71596
H         -4.53836        4.35201        0.74596
H         -2.13632        2.43224       -1.48710
H         -3.53971        1.88684       -0.56050
H         -2.07322        0.89972       -0.61028
H         -1.97627        2.45098        2.80831
H         -1.97803        0.91088        1.94258
H         -3.44450        1.89793        1.99343
H          0.28454        0.75433        0.58234
H          1.55802        5.59971        0.50698
H          3.92444        5.46312        1.69205
H          5.38247        4.46250        1.64651
H          3.97442        3.93243        2.57347
H          3.80840        3.90748       -1.72089
H          5.28350        4.44779       -0.91161
H          3.82576        5.44835       -0.85607
H          6.37175        2.02165        0.34109
H          8.92308        3.01948        0.16602
H         10.35171        2.55745       -0.77717
H         10.43997        2.59710        0.98261
H         12.09577        0.68779        0.96982
H         12.02431        0.65905       -0.79079
H         12.27663       -0.85346        0.10594
H          7.99828       -5.82290        0.34337
H         10.54247       -7.74102        2.41532
H         10.51916       -9.28393        1.55446
H          9.06634       -8.27537        1.60323
H         10.38157       -7.77399       -1.87944
H          8.97066       -8.29496       -0.95103
H         10.42358       -9.30350       -0.99562
H         12.79997       -9.45391        0.19008
H         14.08387       -4.61017        0.12123
H         16.34791       -6.29628       -2.09232
H         17.81442       -5.75358       -1.26837
H         16.35316       -4.75707       -1.22459
H         16.48254       -6.28248        2.20343
H         16.43344       -4.74882        1.32729
H         17.89458       -5.74569        1.28586
H         18.89061       -8.16810       -0.01342
H         14.79273      -13.38928        0.06244
H         15.12507      -14.90799        0.92113
H         15.09681      -14.88781       -0.84057
H         16.89648      -16.69947        0.87756
H         18.40062      -17.02413       -0.00906
H         16.89236      -16.69208       -0.88502
H         23.65422      -12.97743       -0.10172
H         25.46293      -15.47668       -2.28805
H         27.01537      -15.52012       -1.44522
H         26.03878      -14.04509       -1.42608
H         25.54775      -15.48181        2.00923
H         26.09006      -14.04849        1.12859
H         27.06572      -15.52414        1.10576
H         27.15191      -17.83671       -0.17851
H         22.29043      -19.05115       -0.07350
H         24.00239      -21.41380        2.03858
H         23.43060      -22.85016        1.18251
H         22.44597      -21.38043        1.20301
H         23.89892      -21.41289       -2.25778
H         22.38451      -21.38077       -1.34821
H         23.36977      -22.84992       -1.37581
H         25.84782      -23.90957       -0.15985
H         24.89733      -26.51276       -0.11943
H         25.38869      -27.97147        0.76129
H         25.33643      -27.98844       -1.00033
H         27.26455      -29.61617       -1.06370
H         27.31420      -29.61002        0.69780
H         28.81843      -29.80658       -0.22569
H         33.70905      -25.41415       -0.38077
H         35.65734      -27.79052       -2.60083
H         37.21511      -27.74807       -1.76784
H         36.15369      -26.33306       -1.73290
H         35.76953      -27.81774        1.69564
H         36.21929      -26.34875        0.82174
H         37.28163      -27.76291        0.78310
H         37.49478      -30.06769       -0.50285
H         32.70943      -31.55263       -0.40485
H         34.51979      -33.82671        1.69422
H         34.03448      -35.28560        0.82228
H         32.97375      -33.86988        0.83983
H         34.46969      -33.80972       -2.60349
H         32.94386      -33.85799       -1.71382
H         34.00309      -35.27503       -1.73210
H         36.51028      -36.20575       -0.46799
H         41.42520      -31.78327       -0.58813
H         42.93540      -32.00969       -1.49377
H         42.97003      -31.97294        0.26743
H         44.87067      -33.60776        0.29980
H         44.85800      -33.63796       -1.46230
H         45.32567      -35.09270       -0.55946
H         42.34920      -38.50986       -0.47565
