182
d9a9.out	Energy:  -16495.7637292
C         14.56928       13.23861        1.42724
C         13.77734       12.87051        0.38090
C         13.58897       11.47916        0.34256
C         14.24293       10.82304        1.36166
S         15.10236       11.90396        2.38713
C         14.02462        9.40748        1.28528
C         13.19570        9.18481        0.16362
C         12.85287       10.49466       -0.52630
C         13.38142       10.51849       -1.96339
C         11.34374       10.75393       -0.50368
C         12.80365        7.91099       -0.17858
C         13.25582        6.86537        0.62142
C         13.03890        5.45209        0.54616
C         13.69607        4.79584        1.57009
C         14.43027        5.78323        2.43616
C         14.08505        7.08981        1.74345
C         14.47679        8.36367        2.08512
C         13.90131        5.76030        3.87298
C         15.93944        5.52495        2.41299
C         13.51569        3.41526        1.54062
C         12.71667        3.01072        0.48918
S         12.17980        4.37132       -0.48021
C         12.32948        1.68550        0.16138
C         11.53657        1.27126       -0.88322
C         11.31565       -0.10810       -0.96910
C         11.91963       -0.87224        0.00218
Se        12.89698        0.21319        1.19635
C         11.86569       -2.28168        0.15673
C         12.47133       -3.04643        1.13516
C         12.20652       -4.40571        0.98675
C         11.40078       -4.68539       -0.10160
S         10.95109       -3.26954       -0.96835
C         11.15655       -6.08997       -0.21140
C         11.84244       -6.70878        0.85894
C         12.56783       -5.67749        1.70672
C         14.08106       -5.91191        1.69068
C         12.03953       -5.66954        3.14397
C         11.79769       -8.07305        1.02661
C         11.05557       -8.80831        0.10558
C         10.80668      -10.21283       -0.00509
C         10.00081      -10.48843       -1.09472
C          9.64497       -9.21625       -1.81514
C         10.37099       -8.18836       -0.96517
C         10.41532       -6.82454       -1.13289
C          8.13249       -8.97730       -1.80328
C         10.17832       -9.22473       -3.25055
C          9.72810      -11.84541       -1.24508
C         10.32683      -12.61501       -0.26635
S         11.24604      -11.63326        0.86076
C         10.25885      -14.02420       -0.11600
C         10.84797      -14.79856        0.85633
C         10.61174      -16.17475        0.76387
C          9.82097      -16.57681       -0.28757
Se         9.27712      -15.09484       -1.32077
C          9.42356      -17.89790       -0.61923
C          8.63248      -18.29954       -1.67845
C          8.44195      -19.67882       -1.70611
C          9.08335      -20.33600       -0.67213
S          9.93930      -19.25918        0.36034
C          8.85980      -21.74668       -0.74406
C          8.04258      -21.97283       -1.87547
C          7.71200      -20.66638       -2.57665
C          6.20385      -20.40090       -2.57159
C          8.25635      -20.65189       -4.00788
C          7.65122      -23.24629       -2.21605
C          8.09105      -24.28998       -1.40588
C          7.87268      -25.70152       -1.48039
C          8.51562      -26.35804       -0.44691
C          9.23953      -25.36937        0.42708
C          8.90727      -24.06340       -0.27380
C          9.29860      -22.79007        0.06684
C         10.74840      -25.63038        0.42716
C          8.68972      -25.38647        1.85622
C          8.33450      -27.73845       -0.47927
C          7.54987      -28.14213       -1.54237
S          7.02659      -26.78102       -2.51836
C          7.16731      -29.46531       -1.88300
C          6.38965      -29.86884       -2.94355
C          6.17088      -31.24690       -3.04794
C          6.76123      -32.02147       -2.07646
Se         7.71898      -30.94842       -0.85505
C          6.70887      -33.43305       -1.94224
C          7.29943      -34.20936       -0.96392
C          7.04556      -35.56754       -1.13854
C          6.26311      -35.83572       -2.24666
S          5.82159      -34.40888       -3.09958
C          6.03294      -37.24094       -2.38406
C          6.70385      -37.87005       -1.31044
C          7.40233      -36.84728       -0.43122
C          8.91728      -37.07001       -0.41839
C          6.84267      -36.86745        0.99403
C          6.67090      -39.23715       -1.16562
C          5.95599      -39.96401       -2.11331
C          5.72785      -41.36997       -2.25112
C          4.94835      -41.63909       -3.35951
C          4.58944      -40.36005       -4.06718
C          5.28535      -39.33562       -3.18728
C          5.31783      -37.96833       -3.33179
C          3.07394      -40.14112       -4.08155
C          5.15010      -40.33926       -5.49205
C          4.69921      -42.99988       -3.53484
C          5.28990      -43.77257       -2.55733
S          6.17161      -42.79601       -1.39843
C          5.24670      -45.19039       -2.42149
C          5.83632      -45.95500       -1.44743
C          5.62501      -47.34384       -1.56301
C          4.86662      -47.72174       -2.62447
Se         4.31133      -46.27710       -3.64634
H         14.88164       14.22624        1.70387
H         13.35777       13.57158       -0.31819
H         12.88693        9.75571       -2.55979
H         13.19599       11.49060       -2.41461
H         14.45242       10.32788       -1.97346
H         10.97327       10.73001        0.51890
H         11.12490       11.72983       -0.93110
H         10.82188        9.99422       -1.08036
H         12.17064        7.71406       -1.03089
H         15.10978        8.56051        2.93739
H         12.83042        5.95169        3.88277
H         14.08601        4.78825        4.32452
H         14.39614        6.52327        4.46877
H         16.15888        4.54886        2.83957
H         16.30977        5.54999        1.39036
H         16.46056        6.28486        2.98999
H         13.93527        2.70980        2.24058
H         11.11743        1.97359       -1.58496
H         10.71237       -0.55462       -1.74248
H         13.07456       -2.60250        1.91145
H         14.58834       -5.11986        2.23673
H         14.31934       -6.86572        2.15483
H         14.44982       -5.92143        0.66724
H         12.51428       -4.87340        3.71286
H         10.96372       -5.50796        3.14887
H         12.25045       -6.61987        3.62805
H         12.31212       -8.56962        1.83570
H          9.90096       -6.32771       -1.94179
H          7.89839       -8.02256       -2.26760
H          7.62425       -9.76757       -2.35096
H          7.76114       -8.96701       -0.78077
H         11.25363       -9.38985       -3.25149
H          9.70306      -10.01875       -3.82193
H          9.97250       -8.27317       -3.73440
H          9.12306      -12.28429       -2.02287
H         11.45112      -14.36165        1.63525
H         11.01820      -16.88432        1.46580
H          8.22641      -17.59262       -2.38482
H          5.99366      -19.42679       -3.00720
H          5.68562      -21.16229       -3.14926
H          5.82199      -20.41730       -1.55305
H          8.07945      -19.68148       -4.46595
H          9.32665      -20.84673       -4.00571
H          7.76527      -21.41607       -4.60524
H          7.02822      -23.44586       -3.07502
H          9.92186      -22.59047        0.92559
H         11.26231      -24.86822        1.00763
H         10.95994      -26.60442        0.86223
H         11.13378      -25.61150       -0.59001
H          7.61871      -25.19565        1.84988
H          8.86846      -26.35636        2.31466
H          9.17555      -24.62058        2.45566
H          8.74404      -28.44480        0.22565
H          5.98085      -29.15908       -3.64390
H          5.57979      -31.68529       -3.83521
H          7.88519      -33.77454       -0.16933
H          9.40669      -36.28328        0.15113
H          9.15293      -38.02950        0.03529
H          9.30783      -37.06026       -1.43372
H          7.29845      -36.07754        1.58658
H          5.76574      -36.71425        0.97778
H          7.05038      -37.82430        1.46654
H          7.17462      -39.74176       -0.35483
H          4.81423      -37.46396       -4.14282
H          2.83628      -39.18169       -4.53429
H          2.58738      -40.92834       -4.65282
H          2.68211      -40.15342       -3.06676
H          6.22714      -40.49151       -5.47510
H          4.69545      -41.12966       -6.08481
H          4.94170      -39.38272       -5.96487
H          4.11632      -43.43452       -4.33107
H          6.41818      -45.51573       -0.65416
H          6.03583      -48.04945       -0.86038
H          4.58792      -48.72415       -2.89372
