134
d10a7.out	Energy:   -9856.1423699
C         -1.19863       -3.97863       -2.54377
S          0.48473       -4.36446       -2.49091
C          0.86235       -2.69369       -2.34393
C          2.01213       -1.87558       -2.22463
C          1.59893       -0.54169       -2.14309
C          0.09260       -0.43643       -2.20740
C         -0.27551       -1.89522       -2.33840
C         -1.45517       -2.64012       -2.45346
C         -0.35702        0.36892       -3.42947
C         -0.47628        0.17238       -0.92270
C          2.65486        0.34140       -2.02378
C          3.88713       -0.30719       -2.01162
S          3.71837       -2.04818       -2.15228
C          5.16826        0.28202       -1.89874
C          5.37993        1.67715       -1.78562
N          4.42636        2.60982       -1.77886
S          5.09900        4.06140       -1.63260
N          6.63572        3.59311       -1.56877
C          6.70105        2.26502       -1.65993
C          6.35347       -0.48531       -1.88552
N          6.41139       -1.81359       -1.98273
S          7.94856       -2.28342       -1.92187
N          8.62418       -0.83106       -1.76853
C          7.66936        0.09723       -1.75845
C          7.88783        1.48775       -1.63809
C          9.17693        2.04272       -1.50237
S         10.61673        1.03921       -1.46408
C         11.60329        2.44381       -1.27765
C         12.95788        2.78870       -1.13750
C         13.05419        4.19119       -1.02204
C         11.69833        4.84230       -1.08637
C         10.83084        3.62323       -1.25202
C          9.48285        3.39997       -1.37713
C         11.58415        5.77971       -2.29138
C         11.37382        5.58687        0.21150
C         14.33963        4.64269       -0.87654
C         15.27679        3.60418       -0.87445
S         14.50978        2.03464       -1.06111
C         16.67054        3.75263       -0.73940
C         17.29496        5.01966       -0.58765
N         16.66927        6.19537       -0.55793
S         17.74467        7.37585       -0.37092
N         19.06572        6.46061       -0.31689
C         18.72823        5.17807       -0.44355
C         17.57234        2.66202       -0.74025
N         17.22763        1.38317       -0.86912
S         18.55335        0.46954       -0.81691
N         19.63425        1.64914       -0.62792
C         19.00268        2.82003       -0.59691
C         19.62913        4.07936       -0.44249
C         21.02085        4.23911       -0.29869
S         22.13554        2.88129       -0.30156
C         23.47040        3.95899       -0.09028
C         24.86876        3.92635        0.03702
C         25.33837        5.24895        0.18772
C         24.20697        6.24032        0.16288
C         23.04475        5.30279       -0.02194
C         21.68893        5.45744       -0.13752
C         24.33786        7.20941       -1.01513
C         24.10442        7.00572        1.48487
C         26.69894        5.33895        0.31947
C         27.32488        4.08939        0.27393
S         26.16615        2.78579        0.06313
C         28.70958        3.85635        0.37457
C         29.66042        4.89883        0.54069
N         29.38390        6.19879        0.63253
S         30.74925        7.02979        0.81081
N         31.76992        5.78784        0.78131
C         31.08681        4.65370        0.62974
C         29.27631        2.56196        0.31368
N         28.58987        1.43109        0.16741
S         29.61472        0.18919        0.14427
N         30.98234        1.02152        0.31778
C         30.69774        2.31951        0.40304
C         31.64921        3.35389        0.55869
C         33.03569        3.10686        0.62950
S         33.67244        1.47541        0.53030
C         35.27479        2.08881        0.67686
C         36.59377        1.60695        0.70894
C         37.47532        2.69461        0.84843
C         36.71728        3.99764        0.91833
C         35.30117        3.49057        0.79698
C         34.04963        4.05856        0.77132
C         37.08089        4.91992       -0.24842
C         36.94395        4.70622        2.25645
C         38.79852        2.31529        0.88487
C         38.95587        0.93356        0.77540
S         37.42056        0.10101        0.62474
C         40.17053        0.20786        0.77469
C         41.44835        0.80474        0.88301
N         41.71219        2.10732        1.00010
S         43.30446        2.31593        1.09076
N         43.75897        0.78482        0.98854
C         42.66914        0.01166        0.87575
C         40.19069       -1.19848        0.66152
N         39.11245       -1.97331        0.54805
S         39.58100       -3.50791        0.44615
N         41.16452       -3.28608        0.53899
C         41.41737       -1.97356        0.65684
C         42.66462       -1.37333        0.76379
H         -1.90642       -4.77800       -2.63991
H         -2.44751       -2.22667       -2.47019
H          0.05066       -0.06621       -4.33899
H         -0.00774        1.39516       -3.34711
H         -1.44223        0.37040       -3.49899
H         -0.15386       -0.40262       -0.05769
H         -1.56318        0.17195       -0.95695
H         -0.12757        1.19598       -0.81051
H          2.58107        1.40964       -1.94605
H          8.71534        4.15036       -1.38207
H         11.82271        5.24549       -3.20813
H         12.27531        6.61166       -2.18248
H         10.57140        6.16740       -2.36686
H         11.46269        4.91594        1.06281
H         10.35802        5.97227        0.17556
H         12.06338        6.41615        0.34744
H         14.63820        5.66798       -0.77202
H         21.15814        6.38953       -0.11272
H         24.40926        6.65828       -1.94994
H         25.23162        7.81723       -0.89935
H         23.46886        7.86095       -1.05969
H         24.01046        6.31064        2.31599
H         23.23264        7.65494        1.47260
H         24.99523        7.61042        1.63478
H         27.26234        6.24376        0.44442
H         33.82783        5.10615        0.84640
H         36.91156        4.41406       -1.19610
H         38.12849        5.20362       -0.18660
H         36.46847        5.81765       -0.21797
H         36.67851        4.04895        3.08118
H         36.32972        5.60152        2.31234
H         37.98933        4.98715        2.35665
H         39.64552        2.96834        0.98404
H         43.57605       -1.94405        0.76018
