134
d11a1.out	Energy:   -7983.0658920
C         -1.35804        5.03131       -5.66416
S          0.10346        4.48886       -4.91768
C         -0.39362        2.83750       -5.12728
C          0.29772        1.69771       -4.75127
S          1.84517        1.60884       -3.97158
C         -2.17295        4.02615       -6.04929
C         -1.64747        2.73261       -5.75502
C         -2.20809        1.45892       -6.00525
C         -3.54381        1.33760       -6.67634
C         -1.52406        0.31801       -5.62809
C         -2.12575       -1.02997       -5.89215
C         -0.26104        0.42849       -4.99848
C          0.60379       -0.59503       -4.53941
C          1.76107       -0.13719       -3.97014
C          2.83454       -0.91221       -3.41117
C          2.84431       -2.29828       -3.37814
C          3.89606       -3.02982       -2.83239
C          3.97062       -0.27675       -2.84879
N          4.17540        1.03478       -2.77061
S          5.58971        1.30480       -2.06044
N          6.01674       -0.22762       -1.81510
C          5.06025       -1.02895       -2.28337
C          5.02482       -2.44874       -2.27478
C          6.09363       -3.23788       -1.73004
S          5.98975       -4.98975       -1.74881
C          7.54775       -5.10943       -1.00083
C          8.23004       -6.26763       -0.67583
S          7.69746       -7.90112       -0.91130
C          7.26268       -2.80523       -1.16996
C          8.11986       -3.84884       -0.74187
C          9.39741       -3.76773       -0.13520
C         10.00627       -2.42917        0.15585
C         10.08584       -4.92282        0.18296
C         11.44179       -4.82779        0.81621
C          9.50942       -6.18845       -0.08963
C         10.03415       -7.48404        0.13453
C          9.20062       -8.50002       -0.25173
C          9.43204       -9.91644       -0.18797
C         10.64024      -10.49165        0.17932
C         10.84872      -11.87013        0.20910
C          8.39815      -10.82529       -0.52622
N          7.15868      -10.51933       -0.90142
S          6.34103      -11.87593       -1.17400
N          7.51577      -12.91825       -0.83159
C          8.60957      -12.24411       -0.48543
C          9.86539      -12.79171       -0.12126
C         10.06010      -14.21515       -0.11708
S          8.69891      -15.27097       -0.40820
C          9.72469      -16.65922       -0.24393
C          9.35562      -17.98802       -0.34465
S          7.76431      -18.60884       -0.62968
C         11.22091      -14.91462        0.08280
C         11.06840      -16.32042        0.01241
C         12.04049      -17.34221        0.15306
C         13.47341      -16.99175        0.42302
C         11.67087      -18.66848        0.03471
C         12.70229      -19.74836        0.16716
C         10.31684      -19.00806       -0.20728
C          9.72111      -20.28692       -0.33889
C          8.37326      -20.25348       -0.56304
C          7.47014      -21.35713       -0.72872
C          6.10930      -21.16502       -0.91432
C          5.19959      -22.20733       -1.06850
C          7.90902      -22.70766       -0.70916
N          9.15071      -23.16613       -0.55410
S          9.13073      -24.77469       -0.60832
N          7.55286      -24.97462       -0.82953
C          6.96502      -23.78268       -0.87211
C          5.57939      -23.54090       -1.05170
C          4.65551      -24.63059       -1.20308
S          5.23185      -26.27983       -1.21988
C          3.60867      -26.86036       -1.42554
C          3.19042      -28.17455       -1.53914
S          4.17930      -29.59794       -1.51408
C          3.29519      -24.56076       -1.34493
C          2.66034      -25.81849       -1.47418
C          1.28404      -26.11399       -1.63402
C          0.27070      -25.00996       -1.68518
C          0.87016      -27.42746       -1.74279
C         -0.58607      -27.74155       -1.90921
C          1.82335      -28.47369       -1.69948
C          1.61759      -29.87197       -1.79999
C          2.76198      -30.61195       -1.72177
C          2.89612      -32.04350       -1.79310
C          4.12657      -32.66741       -1.70466
C          4.28459      -34.05919       -1.77451
C          1.76771      -32.89286       -1.96096
N          0.48536      -32.54850       -2.07084
S         -0.40131      -33.88099       -2.24408
N          0.78234      -34.96236       -2.18992
C          1.94204      -34.32224       -2.03153
C          3.21731      -34.90067       -1.93666
H         -1.52022        6.08619       -5.77024
H         -3.11947        4.20349       -6.52687
H         -3.94182        2.30730       -6.95305
H         -4.25898        0.85045       -6.01333
H         -3.46249        0.73046       -7.57749
H         -3.11206       -1.10234       -5.43483
H         -1.50805       -1.82861       -5.49748
H         -2.24642       -1.18839       -6.96398
H          0.38303       -1.64284       -4.62569
H          2.00969       -2.84296       -3.79009
H          3.83107       -4.10831       -2.84515
H          7.47724       -1.75634       -1.08639
H          9.33108       -1.62129       -0.10246
H         10.92933       -2.30083       -0.40972
H         10.25357       -2.34624        1.21381
H         11.37779       -4.31088        1.77375
H         12.11933       -4.25947        0.17949
H         11.87385       -5.80736        0.98668
H         10.99713       -7.67036        0.57346
H         11.46584       -9.85040        0.44633
H         11.82318      -12.22715        0.50425
H         12.15998      -14.42435        0.26314
H         13.60347      -15.92537        0.56919
H         14.10357      -17.30236       -0.41071
H         13.82899      -17.50621        1.31502
H         13.52173      -19.57854       -0.53039
H         12.27968      -20.72671       -0.03191
H         13.12092      -19.75285        1.17384
H         10.24424      -21.22227       -0.26944
H          5.73582      -20.15143       -0.93803
H          4.16029      -21.95494       -1.20644
H          2.76761      -23.62506       -1.35221
H          0.73612      -24.03379       -1.61072
H         -0.44295      -25.11217       -0.86766
H         -0.28949      -25.05231       -2.61893
H         -1.16053      -27.32842       -1.08046
H         -0.76101      -28.81068       -1.94807
H         -0.96707      -27.29671       -2.82854
H          0.66281      -30.34610       -1.92898
H          5.00585      -32.05282       -1.57648
H          5.28113      -34.46765       -1.69744
H          3.32465      -35.97131       -1.99250
