174
d11a4.out	Energy:   -9039.9301765
C          6.16736        5.16337      -10.05971
S          7.13506        4.59292       -8.74653
C          6.50678        2.98724       -8.97056
C          6.82291        1.85649       -8.23934
S          7.93435        1.73005       -6.90617
C          5.41465        4.20005      -10.63403
C          5.58362        2.91942      -10.02965
C          4.97027        1.68614      -10.35242
C          3.98617        1.60176      -11.48128
C          5.27599        0.55277       -9.62266
C          4.62068       -0.75281       -9.95938
C          6.20895        0.62857       -8.55978
C          6.66619       -0.39560       -7.69994
C          7.58267        0.02359       -6.76868
C          8.22308       -0.77116       -5.77321
C          7.99284       -2.15009       -5.60290
N          7.16845       -2.92936       -6.30904
S          7.24932       -4.43136       -5.74517
N          8.32467       -4.18426       -4.58273
C          8.68019       -2.89905       -4.57558
C          9.15503       -0.19820       -4.88117
N          9.39659        1.11844       -5.02324
C         10.24875        1.72899       -4.25101
C         10.46764        3.18690       -4.46645
C         10.93702        0.99166       -3.24043
C         11.92975        1.64988       -2.34048
N         10.71957       -0.28351       -3.07381
C          9.83808       -0.93691       -3.86214
C          9.61004       -2.32323       -3.68347
C         10.25432       -3.13007       -2.69780
S          9.94827       -4.85447       -2.63421
C         11.05106       -5.01839       -1.30280
C         11.40212       -6.17973       -0.64412
S         10.83209       -7.79297       -0.96791
C         11.14628       -2.73584       -1.72732
C         11.61787       -3.78420       -0.91476
C         12.54128       -3.73292        0.16304
C         13.12944       -2.41901        0.58344
C         12.90244       -4.89277        0.81412
C         13.89026       -4.84686        1.94128
C         12.33374       -6.13180        0.41641
C         12.56203       -7.41991        0.93782
C         11.84590       -8.41368        0.31086
C         11.88277       -9.80668        0.60052
C         12.69156      -10.37950        1.60231
N         13.51643       -9.74744        2.44166
S         14.22466      -10.82563        3.39985
N         13.53356      -12.14581        2.80960
C         12.70303      -11.80720        1.82283
C         11.09224      -10.71811       -0.13483
N         10.30160      -10.19605       -1.08984
C          9.53454      -10.96000       -1.81419
C          8.68539      -10.31212       -2.85314
C          9.53064      -12.36925       -1.58867
C          8.65561      -13.27947       -2.38548
N         10.29189      -12.90623       -0.67507
C         11.09878      -12.13291        0.08404
C         11.92650      -12.71727        1.07413
C         12.01279      -14.11735        1.33778
S         13.06016      -14.70823        2.61272
C         12.58869      -16.34229        2.26499
C         13.00828      -17.49231        2.90510
S         14.13465      -17.61824        4.22007
C         11.35954      -15.14522        0.69788
C         11.66507      -16.42474        1.19944
C         11.17015      -17.68829        0.78046
C         10.20398      -17.76896       -0.36416
C         11.57059      -18.83305        1.43407
C         11.03206      -20.16962        1.01711
C         12.50248      -18.74834        2.50248
C         13.04574      -19.78405        3.28596
C         13.92876      -19.35842        4.25125
C         14.62456      -20.14497        5.21775
C         15.51307      -19.52973        6.12552
N         15.80461      -18.22863        6.14312
S         16.84973      -17.93365        7.32173
N         16.99420      -19.43264        7.88185
C         16.22019      -20.24823        7.16055
C         14.48195      -21.54633        5.36891
N         13.67627      -22.24459        4.53925
C         13.53336      -23.53327        4.68556
C         12.63321      -24.24506        3.73031
C         14.21688      -24.23486        5.72285
C         14.07480      -25.70437        5.92788
N         15.00326      -23.58162        6.52971
C         15.17640      -22.25382        6.40201
C         16.04895      -21.63696        7.32647
C         16.67737      -22.39802        8.35255
S         16.36353      -24.10793        8.51228
C         17.41091      -24.17616        9.90076
C         17.69976      -25.28323       10.67239
S         17.08125      -26.89681       10.46724
C         17.54655      -21.93552        9.31395
C         17.98673      -22.92602       10.21424
C         18.87228      -22.80698       11.31817
C         19.48773      -21.48078       11.64957
C         19.16589      -23.91461       12.08565
C         20.10124      -23.79300       13.25088
C         18.57612      -25.16806       11.77308
C         18.72150      -26.40900       12.42496
C         17.99317      -27.42843       11.85820
C         17.92839      -28.78512       12.29338
C         18.63843      -29.28655       13.40465
N         19.46517      -28.61637       14.21174
S         20.03042      -29.61893       15.33194
N         19.27438      -30.95279       14.87444
C         18.52385      -30.67858       13.79820
C         17.11893      -29.71744       11.61120
N         16.42203      -29.28113       10.54505
C         15.65565      -30.09864        9.88240
C         14.90866      -29.55232        8.71362
C         15.55064      -31.47173       10.28338
C         14.67804      -32.42583        9.53792
N         16.21067      -31.92932       11.30723
C         17.01348      -31.08971       12.01097
C         17.71721      -31.57381       13.10657
H          6.22125        6.20101      -10.32584
H          4.75923        4.40007      -11.46234
H          3.88148        2.55200      -11.99284
H          3.00605        1.30327      -11.10877
H          4.30462        0.85460      -12.20772
H          4.88154       -1.05857      -10.97279
H          3.53615       -0.65677       -9.91292
H          4.92539       -1.53735       -9.27598
H          6.35283       -1.42207       -7.73885
H          9.83669        3.52431       -5.28345
H         11.51121        3.38123       -4.70971
H         10.22294        3.74473       -3.56378
H         12.73464        2.09201       -2.92565
H         12.34690        0.91715       -1.65584
H         11.45338        2.44525       -1.76909
H         11.43460       -1.70605       -1.64206
H         12.64219       -1.59062        0.08136
H         14.19376       -2.38692        0.34776
H         13.02401       -2.28089        1.65854
H         13.47007       -4.30914        2.79190
H         14.79495       -4.32421        1.63344
H         14.16354       -5.84340        2.26949
H         13.22603       -7.65278        1.74922
H          8.86006       -9.24034       -2.83721
H          7.63225      -10.51148       -2.66031
H          8.92725      -10.70512       -3.83954
H          8.90375      -13.21167       -3.44373
H          7.61047      -12.99785       -2.26658
H          8.78985      -14.30393       -2.05069
H         10.67825      -14.93865       -0.10468
H         10.14931      -16.82643       -0.89767
H          9.20561      -18.01712       -0.00173
H         10.50657      -18.54478       -1.06535
H         11.44250      -20.45943        0.04904
H          9.94819      -20.13163        0.92187
H         11.28679      -20.93733        1.73926
H         12.82363      -20.82793        3.17709
H         12.22843      -23.53885        3.01133
H         11.81307      -24.71980        4.26706
H         13.18262      -25.02149        3.20014
H         14.40335      -26.24449        5.04111
H         13.03342      -25.96269        6.11381
H         14.68078      -26.00175        6.77861
H         17.83373      -20.90084        9.33959
H         19.14151      -20.70310       10.97816
H         20.57403      -21.53838       11.57859
H         19.23958      -21.19133       12.67052
H         19.69668      -23.10294       13.99160
H         21.06402      -23.39946       12.92573
H         20.26637      -24.75163       13.72974
H         19.33144      -26.58770       13.29096
H         15.14264      -28.49694        8.60788
H         13.83614      -29.67454        8.85768
H         15.18877      -30.08017        7.80317
H         13.64457      -32.08290        9.55073
H         14.73891      -33.40554       10.00249
H         14.99655      -32.49771        8.49905
H         17.63569      -32.60478       13.40455
