234
d11a10.out	Energy:   -8249.7012147
C         -4.77596      -24.17757       -4.08081
S         -4.21175      -22.59333       -4.47551
C         -2.90876      -22.76761       -3.33847
C         -1.92171      -21.84546       -3.03801
S         -1.71141      -20.26757       -3.71722
C         -4.02652      -24.80126       -3.14656
C         -2.92865      -24.01467       -2.68712
C         -1.93882      -24.32999       -1.72706
C         -1.95203      -25.65819       -1.03210
C         -0.95012      -23.41103       -1.42612
C          0.10336      -23.74332       -0.41497
C         -0.93561      -22.15495       -2.07959
C         -0.02871      -21.08443       -1.92007
C         -0.29244      -19.99576       -2.71404
C          0.51033      -18.82135       -2.73136
C          1.68715      -18.63499       -2.00942
C          2.57570      -19.25221       -1.06325
O          2.54393      -20.32280       -0.47870
N          3.60779      -18.31579       -0.87352
C          4.70918      -18.67909       -0.01731
C          5.70069      -19.62538       -0.71477
C          6.33348      -18.97981       -1.94328
C          6.77591      -20.04515        0.28224
C          3.41372      -17.17979       -1.62412
C          2.22581      -17.35755       -2.33498
C          1.33978      -16.74512       -3.28862
O          1.37122      -15.67694       -3.87783
N          0.31165      -17.68641       -3.48107
C         -0.80332      -17.36596       -4.33345
C         -2.05834      -16.95472       -3.54732
C         -1.80791      -15.66350       -2.77455
C         -3.22533      -16.79530       -4.51618
C          4.23069      -16.01483       -1.67469
S          5.71694      -15.76363       -0.77186
C          5.91805      -14.19933       -1.47999
C          6.96189      -13.31547       -1.26991
S          8.35938      -13.55603       -0.27971
C          3.93607      -14.92173       -2.45576
C          4.87384      -13.87268       -2.36724
C          4.87520      -12.62008       -3.03408
C          3.75888      -12.26945       -3.96902
C          5.90550      -11.72835       -2.81481
C          5.89680      -10.39916       -3.50880
C          6.96919      -12.07423       -1.94099
C          8.12572      -11.33561       -1.60817
C          8.96455      -11.97413       -0.72886
C         10.23761      -11.59504       -0.20459
C         11.19255      -12.48219        0.27014
C         11.45761      -13.87628        0.50235
O         10.75690      -14.86724        0.42470
N         12.81450      -13.92111        0.89425
C         13.33105      -15.17411        1.38555
C         13.05275      -15.38337        2.88354
C         13.47725      -16.79561        3.27670
C         13.77012      -14.34837        3.74495
C         13.37413      -12.65962        0.92796
C         12.38140      -11.76042        0.56781
C         12.12771      -10.36959        0.30134
O         12.82298       -9.37923        0.40248
N         10.78817      -10.33227       -0.15655
C         10.15381       -9.04655       -0.30484
C          9.36842       -8.58933        0.94037
C          8.11248       -9.42196        1.18443
C         10.25833       -8.59838        2.18080
C         14.72710      -12.31032        1.22433
S         15.04817      -10.63626        1.63840
C         16.72756      -10.99227        1.83969
C         17.73644      -10.11647        2.21699
S         17.59089       -8.42700        2.55262
C         15.87660      -13.06144        1.21335
C         17.03804      -12.33854        1.55847
C         18.37552      -12.80642        1.65970
C         18.69290      -14.23477        1.32426
C         19.36850      -11.94944        2.07926
C         20.77761      -12.43886        2.24734
C         19.05865      -10.58868        2.34415
C         19.92958       -9.54863        2.72828
C         19.31351       -8.33074        2.89247
C         19.83180       -7.05261        3.25533
C         19.11910       -5.86035        3.19242
C         17.84642       -5.29904        2.83768
O         16.81020       -5.79999        2.44619
N         17.99767       -3.90721        3.03952
C         16.82587       -3.08699        2.86306
C         15.94326       -3.03799        4.12197
C         16.66152       -2.40558        5.31018
C         14.65787       -2.27952        3.80358
C         19.25846       -3.59518        3.50494
C         19.95738       -4.79307        3.60940
C         21.22793       -5.35703        3.97046
O         22.24711       -4.86460        4.41491
N         21.09021       -6.74143        3.72561
C         22.21199       -7.58912        4.04609
C         23.32624       -7.51017        2.98769
C         24.52938       -8.32261        3.45730
C         22.86312       -7.97835        1.61090
C         19.80582       -2.31083        3.80173
S         21.40632       -2.27825        4.53024
C         21.36508       -0.55142        4.58146
C         22.34601        0.30107        5.07084
S         23.87527       -0.13613        5.74820
C         19.31497       -1.04117        3.60833
C         20.17987       -0.01468        4.03943
C         19.97638        1.39127        3.99726
C         18.71987        1.94338        3.38875
C         20.92833        2.23424        4.52518
C         20.71271        3.71973        4.54170
C         22.13517        1.69480        5.04663
C         23.25228        2.38251        5.56393
C         24.27488        1.55971        5.97260
C         25.54798        1.86047        6.54302
C         26.41433        0.93318        7.09703
C         26.56973       -0.46632        7.39207
O         25.87450       -1.43896        7.17323
N         27.81274       -0.53533        8.06575
C         28.39116       -1.78232        8.48872
C         29.57294       -2.21383        7.60599
C         30.14714       -3.52462        8.13499
C         29.12803       -2.36318        6.15418
C         28.38623        0.69205        8.17752
C         27.56623        1.62052        7.60150
C         27.39309        3.02536        7.32179
O         28.08354        3.99568        7.54529
N         26.13593        3.10331        6.67455
C         25.70211        4.37171        6.14893
C         25.76151        4.44042        4.61483
C         25.20561        5.78249        4.14726
C         27.19720        4.25116        4.13382
H         -5.64852      -24.55047       -4.58071
H         -4.25158      -25.79247       -2.79724
H         -2.79032      -26.26881       -1.34790
H         -2.01442      -25.51980        0.04692
H         -1.03176      -26.20333       -1.24129
H         -0.35184      -23.93322        0.55706
H          0.82271      -22.93973       -0.30579
H          0.63775      -24.64625       -0.70959
H          0.80667      -21.09191       -1.24406
H          4.27522      -19.20713        0.83856
H          5.21934      -17.78722        0.34267
H          5.13997      -20.51198       -1.02891
H          6.94757      -18.13077       -1.65209
H          5.57347      -18.63819       -2.64332
H          6.96641      -19.69910       -2.45783
H          7.33517      -19.17604        0.62229
H          7.47050      -20.73971       -0.18343
H          6.33078      -20.53252        1.14632
H         -1.02488      -18.21180       -4.98933
H         -0.47371      -16.52174       -4.94741
H         -2.30206      -17.74771       -2.83239
H         -1.53379      -14.86095       -3.45548
H         -0.99901      -15.79088       -2.05830
H         -2.70197      -15.36848       -2.23001
H         -2.99929      -16.03320       -5.25863
H         -4.12314      -16.49783       -3.98047
H         -3.42664      -17.73274       -5.02957
H          3.05988      -14.89871       -3.07706
H          3.07016      -13.09648       -4.09845
H          4.15523      -11.99306       -4.94535
H          3.19997      -11.41524       -3.58604
H          6.69580       -9.75546       -3.15812
H          6.01109      -10.53257       -4.58472
H          4.94884       -9.89053       -3.33901
H          8.35750      -10.38294       -2.04438
H         14.39664      -15.25913        1.18526
H         12.80372      -15.95211        0.82402
H         11.97283      -15.28435        3.03592
H         14.54654      -16.92828        3.12260
H         12.94686      -17.53564        2.68260
H         13.25817      -16.97734        4.32579
H         14.84696      -14.40385        3.59669
H         13.55891      -14.52861        4.79649
H         13.44138      -13.34006        3.50436
H          9.50689       -9.03422       -1.18149
H         10.97592       -8.34203       -0.46902
H          9.06313       -7.55636        0.73729
H          8.36996      -10.45153        1.42229
H          7.46184       -9.42097        0.31269
H          7.55715       -9.01235        2.02527
H         10.51067       -9.61884        2.46353
H          9.74203       -8.13325        3.01728
H         11.18384       -8.05881        1.99759
H         15.89853      -14.09742        0.93535
H         17.91342      -14.67831        0.71366
H         18.79305      -14.82789        2.23434
H         19.62879      -14.30009        0.77436
H         20.78888      -13.42634        2.70281
H         21.35298      -11.77092        2.87989
H         21.27610      -12.50673        1.27945
H         20.98562       -9.69155        2.83572
H         16.24810       -3.56635        2.06538
H         17.10032       -2.08679        2.53485
H         15.68740       -4.07185        4.37622
H         16.89947       -1.36288        5.11076
H         17.58543       -2.93276        5.53623
H         16.02588       -2.44674        6.19176
H         14.87994       -1.25139        3.52278
H         14.00513       -2.26267        4.67263
H         14.12527       -2.75526        2.98398
H         21.87475       -8.61149        4.20702
H         22.62502       -7.20907        4.98755
H         23.61895       -6.45807        2.91793
H         24.26157       -9.37110        3.57909
H         24.89711       -7.94755        4.40896
H         25.33409       -8.25792        2.72939
H         22.71174       -9.05582        1.59399
H         23.61681       -7.73685        0.86495
H         21.93387       -7.49142        1.32360
H         18.35931       -0.83833        3.16785
H         18.25258        1.22022        2.72840
H         18.93519        2.83757        2.80875
H         18.00297        2.20830        4.16714
H         19.67855        3.95536        4.78069
H         20.94267        4.14994        3.56603
H         21.34565        4.19873        5.28161
H         23.29295        3.45107        5.63360
H         27.59279       -2.52719        8.42080
H         28.71504       -1.69747        9.53130
H         30.34785       -1.43994        7.66018
H         29.39680       -4.31038        8.08762
H         30.47039       -3.41780        9.16825
H         31.00284       -3.83064        7.53833
H         28.31413       -3.08054        6.07977
H         29.95497       -2.70823        5.53796
H         28.77923       -1.41298        5.75551
H         29.33372        0.81822        8.66783
H         26.39937        5.10703        6.56489
H         24.70047        4.61054        6.51748
H         25.14714        3.63610        4.19609
H         25.79583        6.59919        4.55656
H         24.17337        5.91059        4.46726
H         25.23624        5.84669        3.06250
H         27.84476        5.01392        4.56012
H         27.24564        4.31911        3.04952
H         27.57841        3.27662        4.43120
