178
d11a5.out	Energy:   -9042.3768133
C          5.56516        7.53211        6.95724
S          6.79008        6.35580        6.63369
C          5.64460        5.39501        5.74476
C          5.87893        4.18722        5.11368
S          7.37215        3.29152        5.04800
C          4.36296        7.21877        6.42708
C          4.36709        5.98347        5.71475
C          3.30964        5.33653        5.03317
C          1.94054        5.94954        5.00372
C          3.53840        4.13550        4.38893
C          2.42089        3.45438        3.65679
C          4.82656        3.54783        4.42738
C          5.26889        2.33316        3.85748
C          6.59144        2.05037        4.09556
C          7.32368        0.90438        3.67200
C          6.78126       -0.13488        2.89348
N          5.53520       -0.18082        2.42126
S          5.25900       -1.50091        1.55689
N          6.82097       -2.10820        1.76165
C          7.58398       -1.27428        2.52483
C          8.68593        0.75418        4.03615
N          9.23676        1.73937        4.75860
C         10.48468        1.66055        5.15206
C         11.03425        2.79815        5.94439
C         11.25044        0.51764        4.82250
C         12.66662        0.36020        5.27151
N         10.73809       -0.45433        4.09954
C          9.47021       -0.37851        3.67335
C          8.91222       -1.44078        2.88890
C          9.69501       -2.59636        2.53280
S          8.93804       -4.14318        2.13975
C         10.48928       -4.88696        1.90795
C         10.73978       -6.19344        1.54894
S          9.58316       -7.44095        1.19358
C         11.05678       -2.69958        2.48370
C         11.54396       -3.98242        2.13815
C         12.88306       -4.42828        2.01273
C         14.01671       -3.47814        2.26054
C         13.14418       -5.74133        1.67418
C         14.56143       -6.21709        1.55915
C         12.07461       -6.63961        1.42952
C         12.11718       -7.99840        1.05859
C         10.88217       -8.58031        0.89067
C         10.57649       -9.92199        0.52527
C          9.23266      -10.32255        0.37753
N          8.19857       -9.49563        0.50256
S          6.79309      -10.21643        0.21991
N          7.49936      -11.74796       -0.04415
C          8.86310      -11.67050        0.04196
C         11.55332      -10.92588        0.26227
N         12.86474      -10.63683        0.32488
C         13.75721      -11.56232        0.05110
C         15.19774      -11.17530        0.14680
C         13.36475      -12.86515       -0.32777
C         14.34011      -13.93568       -0.68547
N         12.08655      -13.16798       -0.37560
C         11.16256      -12.25272       -0.08269
C          9.79552      -12.67219       -0.14714
C          9.48480      -14.04484       -0.42689
S         10.71589      -15.10105       -1.07048
C          9.55747      -16.39803       -1.19632
C          9.76772      -17.66639       -1.69688
S         11.25310      -18.32749       -2.32421
C          8.28665      -14.69628       -0.26077
C          8.29063      -16.04032       -0.69336
C          7.22588      -16.97852       -0.69692
C          5.88912      -16.59985       -0.12680
C          7.41990      -18.22878       -1.24268
C          6.29126      -19.21587       -1.30034
C          8.69889      -18.58903       -1.74338
C          9.11295      -19.80698       -2.31283
C         10.44071      -19.83420       -2.67966
C         11.14684      -20.90662       -3.28504
C         10.55712      -22.13735       -3.64784
N          9.29310      -22.48503       -3.42152
S          8.96382      -23.97540       -3.92090
N         10.52637      -24.24347       -4.54518
C         11.33290      -23.16401       -4.29946
C         12.53852      -20.78807       -3.54168
N         13.15558      -19.65478       -3.18363
C         14.45045      -19.52304       -3.35972
C         15.07027      -18.23016       -2.94598
C         15.20683      -20.58417       -3.91039
C         16.68686      -20.50833       -4.08368
N         14.61069      -21.69285       -4.29420
C         13.29254      -21.82875       -4.14522
C         12.67593      -23.03632       -4.59801
C         13.46190      -24.02315       -5.28466
S         15.19804      -24.00408       -5.12098
C         15.31812      -25.44192       -6.09552
C         16.46671      -26.13068       -6.42737
S         18.09432      -25.77656       -5.91714
C         13.03209      -25.04035       -6.10068
C         14.06852      -25.86891       -6.58755
C         13.98749      -27.00254       -7.43729
C         12.66061      -27.44614       -7.98213
C         15.13119      -27.70379       -7.75585
C         15.05230      -28.91616       -8.63555
C         16.38760      -27.27283       -7.25417
C         17.66413      -27.82961       -7.45827
C         18.68037      -27.15776       -6.81430
C         20.06380      -27.47856       -6.81366
C         20.62207      -28.57138       -7.51229
N         19.96008      -29.44289       -8.26632
S         20.92286      -30.55843       -8.91008
N         22.33379      -29.92412       -8.19664
C         22.04263      -28.82054       -7.44047
C         20.97262      -26.67843       -6.06813
N         20.47723      -25.63352       -5.39403
C         21.27758      -24.86974       -4.68669
C         20.66128      -23.72333       -3.95653
C         22.66528      -25.14827       -4.63597
C         23.60330      -24.30163       -3.83946
N         23.18163      -26.16754       -5.28995
C         22.36897      -26.95243       -6.01443
C         22.90689      -28.05052       -6.72045
H          5.82417        8.39983        7.53213
H          3.50207        7.85303        6.53932
H          1.88785        6.83958        5.62088
H          1.19817        5.23824        5.36432
H          1.66831        6.22312        3.98390
H          1.63485        3.15928        4.35258
H          2.76970        2.56777        3.13929
H          1.97788        4.12933        2.92510
H          4.65638        1.66065        3.28775
H          7.15800       -2.95877        1.33947
H         10.26400        3.55486        6.05984
H         11.89709        3.23064        5.43991
H         11.35537        2.45573        6.92710
H         12.73031        0.42692        6.35638
H         13.28854        1.14889        4.84939
H         13.04340       -0.60655        4.94982
H         11.67527       -1.85036        2.69891
H         13.65829       -2.46867        2.42854
H         14.69642       -3.46605        1.40918
H         14.58795       -3.79011        3.13545
H         15.11201       -5.99831        2.47344
H         15.06781       -5.70871        0.73807
H         14.60354       -7.28534        1.37913
H         13.00831       -8.57484        0.90229
H          7.02692      -12.48586       -0.53979
H         15.27794      -10.13382        0.44415
H         15.69178      -11.31250       -0.81396
H         15.70860      -11.79761        0.88019
H         14.95302      -13.62534       -1.53065
H         13.79487      -14.83792       -0.94637
H         15.00305      -14.14202        0.15378
H          7.43725      -14.24061        0.21541
H          5.96527      -15.72713        0.51411
H          5.48104      -17.41706        0.46420
H          5.18021      -16.37817       -0.92627
H          6.07372      -19.60424       -0.30440
H          6.53641      -20.05344       -1.94425
H          5.38740      -18.74267       -1.68030
H          8.48665      -20.66655       -2.45800
H         10.89525      -25.16488       -4.71485
H         14.29502      -17.57429       -2.56115
H         15.56040      -17.75558       -3.79473
H         15.82015      -18.39847       -2.17436
H         17.17330      -20.33000       -3.12580
H         16.94942      -19.68962       -4.75234
H         17.04310      -21.44507       -4.50234
H         12.00378      -25.14896       -6.39670
H         11.88767      -26.70622       -7.80306
H         12.35157      -28.38439       -7.51913
H         12.72728      -27.61291       -9.05595
H         14.28360      -29.59962       -8.27781
H         15.99803      -29.44599       -8.66100
H         14.79375      -28.62908       -9.65551
H         17.87371      -28.69677       -8.05574
H         23.25179      -30.31346       -8.31043
H         19.59186      -23.71855       -4.14586
H         21.09397      -22.78152       -4.29108
H         20.83934      -23.81466       -2.88596
H         23.57378      -23.27025       -4.18805
H         24.61263      -24.68870       -3.94411
H         23.32120      -24.30935       -2.78748
H         23.96460      -28.24841       -6.67307
