134
d11a2.out	Energy:  -16000.2402271
C         -1.53009        3.38949       -1.94791
S         -0.61969        1.92823       -1.80560
C          0.83635        2.84863       -1.58466
C          2.11729        2.35816       -1.38742
S          2.63409        0.70336       -1.30472
C         -0.77910        4.50621       -1.83610
C          0.60565        4.23569       -1.62344
C          1.67985        5.14612       -1.46130
C          1.41434        6.62503       -1.50595
C          2.95665        4.66119       -1.26453
C          4.14947        5.55496       -1.08397
C          3.18130        3.26286       -1.22680
C          4.40444        2.57780       -1.03805
C          4.28778        1.21244       -1.05232
C          5.33594        0.24226       -0.88920
C          6.66083        0.59489       -0.68793
C          7.68109       -0.34043       -0.52864
C          7.46540       -1.70951       -0.55670
C          6.11937       -2.12303       -0.76149
C          5.06183       -1.15374       -0.92668
N          3.86211       -1.68588       -1.10881
Se         3.98681       -3.43130       -1.08379
N          5.71551       -3.38340       -0.81915
C          8.52254       -2.66886       -0.39100
S          8.20440       -4.38573       -0.43103
C          9.88820       -4.72531       -0.17169
C         10.49783       -5.96633       -0.07157
S          9.77362       -7.54414       -0.17283
C          9.85245       -2.40345       -0.18978
C         10.66441       -3.55201       -0.05989
C         12.06713       -3.62322        0.15447
C         12.87224       -2.35924        0.27064
C         12.67076       -4.85639        0.25344
C         14.14471       -5.03036        0.47947
C         11.88755       -6.03335        0.14072
C         12.32925       -7.37098        0.21626
C         11.33113       -8.30024        0.06980
C         11.47974       -9.72914        0.10192
C         12.70990      -10.33941        0.29234
C         12.87753      -11.72039        0.32830
C         11.83020      -12.61609        0.17708
C         10.54433      -12.03993       -0.02221
C         10.37002      -10.60518       -0.05967
N          9.11875      -10.21484       -0.25214
Se         8.08569      -11.61998       -0.39798
N          9.42409      -12.72775       -0.18674
C         12.02472      -14.03945        0.21852
S         10.69475      -15.15471        0.02621
C         11.77406      -16.50613        0.20261
C         11.46144      -17.85645        0.16785
S          9.91004      -18.60706       -0.06169
C         13.21394      -14.69603        0.40495
C         13.11209      -16.10419        0.40218
C         14.14713      -17.06317        0.56860
C         15.56420      -16.60820        0.77873
C         13.83414      -18.40296        0.53469
C         14.85824      -19.48781        0.70206
C         12.48908      -18.80427        0.33371
C         11.98659      -20.12082        0.27002
C         10.63282      -20.19412        0.06450
C          9.84463      -21.39034       -0.04353
C         10.39825      -22.65757        0.05622
C          9.64850      -23.82630       -0.04616
C          8.27869      -23.83071       -0.25734
C          7.66167      -22.55279       -0.36750
C          8.43954      -21.34019       -0.26100
N          7.73146      -20.22716       -0.38304
Se         6.04848      -20.63184       -0.63864
N          6.36789      -22.35119       -0.56962
C          7.51288      -25.04227       -0.36126
S          5.78984      -24.99472       -0.63625
C          5.72237      -26.72885       -0.62199
C          4.60354      -27.52846       -0.78869
S          2.96407      -27.02966       -1.05871
C          7.97939      -26.32880       -0.26830
C          6.98407      -27.32196       -0.41230
C          7.12064      -28.73607       -0.36961
C          8.47561      -29.34750       -0.14595
C          6.00613      -29.52889       -0.53423
C          6.05830      -31.02899       -0.50232
C          4.73873      -28.92772       -0.74591
C          3.49150      -29.56423       -0.93593
C          2.44512      -28.69740       -1.11644
C          1.05981      -29.02786       -1.33262
C          0.59657      -30.32889       -1.38239
C         -0.75545      -30.64375       -1.59481
C         -1.70807      -29.67826       -1.76666
C         -1.30059      -28.33193       -1.72627
C          0.08767      -27.99989       -1.50844
N          0.34071      -26.70018       -1.49276
Se        -1.14892      -25.81746       -1.74914
N         -2.09958      -27.27971       -1.87464
H         -2.58829        3.32344       -2.10955
H         -1.20449        5.49104       -1.90368
H          0.36268        6.83148       -1.66832
H          1.97740        7.09053       -2.31425
H          1.70860        7.09487       -0.56800
H          3.88401        6.60484       -1.12589
H          4.88481        5.35542       -1.86302
H          4.61913        5.35785       -0.12063
H          5.34093        3.08436       -0.89606
H          6.92712        1.63942       -0.65040
H          8.68132        0.03307       -0.37631
H         10.23216       -1.40021       -0.13731
H         12.24691       -1.47992        0.16923
H         13.63532       -2.32018       -0.50598
H         13.36694       -2.30978        1.24009
H         14.66193       -4.08085        0.55252
H         14.58238       -5.59724       -0.34174
H         14.31643       -5.58634        1.40071
H         13.35781       -7.63513        0.37486
H         13.58799       -9.72700        0.42064
H         13.87624      -12.09645        0.48241
H         14.14080      -14.17142        0.54140
H         15.63891      -15.52707        0.77476
H         16.20903      -16.99234       -0.01093
H         15.94221      -16.96759        1.73527
H         15.85453      -19.08938        0.85404
H         14.87415      -20.12378       -0.18263
H         14.60332      -20.11046        1.55916
H         12.61137      -20.98796        0.37334
H         11.45915      -22.75755        0.22122
H         10.17096      -24.76533        0.04506
H          9.01697      -26.54888       -0.09911
H          9.24036      -28.58635       -0.04331
H          8.74924      -29.98782       -0.98382
H          8.47778      -29.95067        0.76138
H          7.06144      -31.39994       -0.32726
H          5.70308      -31.43356       -1.44972
H          5.41012      -31.40652        0.28798
H          3.37450      -30.63202       -0.93876
H          1.29171      -31.14340       -1.25397
H         -1.04031      -31.68530       -1.61913
H         -2.74722      -29.91328       -1.92868
