198
d1a11.out	Energy:   -9221.0205443
C          4.47673       -8.84001        5.45860
S          5.18633       -7.25920        5.45788
C          6.39907       -7.80758        4.37632
C          7.56916       -7.30274        3.76244
S          8.43968       -5.83093        3.64808
C          5.13108       -9.73416        4.66757
C          6.23803       -9.15184        4.02059
C          7.33750       -9.54167        3.14133
C          7.61689      -10.71714        2.54443
C          6.76857      -11.89440        2.49544
C          5.39416      -11.78185        2.28777
C          4.59073      -12.90784        2.21827
C          3.11367      -12.78843        1.99092
C          5.17530      -14.16056        2.36000
C          6.54492      -14.30241        2.54527
C          7.14702      -15.66721        2.69387
C          7.33412      -13.16508        2.59802
C          8.16628       -8.34017        3.03320
C          9.32765       -7.94369        2.37827
C          9.62375       -6.60815        2.60379
C         10.71281       -5.88639        2.07642
C         11.73404       -6.36460        1.24583
N         11.87509       -7.63276        0.81633
C         12.88587       -7.89247        0.02569
C         13.03417       -9.30123       -0.44820
C         13.81332       -6.87886       -0.37050
C         14.95133       -7.18837       -1.28660
N         13.70321       -5.64297        0.04919
C         12.66815       -5.35196        0.85829
C         12.36479       -4.08905        1.38713
S         10.93428       -4.18875        2.36668
C         13.04490       -2.88042        1.15356
S         12.48513       -1.35448        1.82999
C         13.75606       -0.52776        1.02439
C         14.16582        0.79736        0.79968
S         13.71126        2.39027        1.26050
C         14.17619       -2.72154        0.36528
C         14.59501       -1.39994        0.29903
C         15.60384       -0.60623       -0.40176
C         16.63185       -1.00483       -1.17591
C         17.07827       -2.37479       -1.36413
C         17.50995       -2.80649       -2.61944
C         17.93515       -4.10893       -2.81489
C         18.36800       -4.58796       -4.16794
C         17.94965       -4.98317       -1.73212
C         17.55858       -4.56990       -0.46696
C         17.57032       -5.50877        0.70081
C         17.12829       -3.26275       -0.29292
C         15.25732        0.77830       -0.09247
C         15.70767        2.04987       -0.41303
C         14.97375        3.04120        0.22655
C         15.11253        4.43182        0.11596
C         14.38172        5.39222        0.82207
N         13.44436        5.10904        1.73911
C         12.83541        6.12220        2.30351
C         11.79134        5.80663        3.32152
C         13.16064        7.47309        1.96094
C         12.45069        8.61941        2.60324
N         14.08460        7.76623        1.07771
C         14.71508        6.73728        0.48084
C         15.70326        6.81757       -0.51144
S         16.21250        5.21712       -0.97647
C         16.21571        7.97671       -1.11667
S         17.34928        7.89160       -2.46059
C         17.36092        9.60528       -2.55899
C         17.89757       10.60065       -3.38853
S         18.89796       10.72186       -4.77706
C         15.89742        9.28559       -0.77852
C         16.55669       10.21448       -1.57175
C         16.60426       11.66511       -1.75909
C         16.00943       12.64888       -1.05654
C         15.26971       12.48528        0.18352
C         15.73139       11.63569        1.18507
C         15.01953       11.46632        2.36349
C         15.52295       10.51311        3.40404
C         13.83653       12.16964        2.53774
C         13.36942       13.05069        1.56714
C         12.08906       13.79847        1.78844
C         14.09690       13.21022        0.40046
C         17.44138       11.85691       -2.94135
C         17.90930       12.90863       -3.71568
C         18.70940       12.47271       -4.76510
C         19.32012       13.26910       -5.74772
C         19.31655       14.66703       -5.85386
N         18.72405       15.53737       -5.01505
C         18.84848       16.81296       -5.29033
C         18.19140       17.77451       -4.35531
C         19.57735       17.28068       -6.43031
C         19.70786       18.73713       -6.72653
N         20.15819       16.44920       -7.25825
C         20.04160       15.13905       -6.98993
C         20.59634       14.11992       -7.76772
S         20.22196       12.57484       -7.06752
C         21.35577       14.27352       -8.93738
S         21.76452       15.88065       -9.50908
C         22.63163       15.18111      -10.81873
C         23.34087       15.60981      -11.95600
S         23.81974       17.07877      -12.70093
C         21.87107       13.26889       -9.74318
C         22.61296       13.77062      -10.80453
C         23.34222       13.27355      -11.97129
C         23.56935       12.01369      -12.39183
C         23.22657       10.79052      -11.68711
C         22.71251        9.70511      -12.39834
C         22.34365        8.54009      -11.74822
C         21.78292        7.37478      -12.50647
C         22.51111        8.45685      -10.36990
C         23.05838        9.50564       -9.64432
C         23.22167        9.41136       -8.15775
C         23.42220       10.66479      -10.31396
C         23.76794       14.47987      -12.67607
C         24.48232       14.80610      -13.82275
C         24.60385       16.17598      -13.99176
C         25.26593       16.83462      -15.05141
C         25.92891       16.25348      -16.13633
N         26.06068       14.93603      -16.38230
C         26.72270       14.59125      -17.45640
C         26.86729       13.12930      -17.72620
C         27.29099       15.56605      -18.34555
C         28.04381       15.14136      -19.56353
N         27.17791       16.84764      -18.13375
C         26.49610       17.23050      -17.02742
C         26.26237       18.52170      -16.61980
S         25.36139       18.56201      -15.16538
H          3.60326       -9.00723        6.05713
H          4.83203      -10.76196        4.57083
H          8.57336      -10.80447        2.04278
H          4.96335      -10.80208        2.14493
H          2.81138      -11.74536        1.93634
H          2.56455      -13.26938        2.80001
H          2.83260      -13.28107        1.06044
H          4.55272      -15.04328        2.31255
H          6.72699      -16.35465        1.96216
H          6.93204      -16.06406        3.68632
H          8.22609      -15.63335        2.56675
H          8.40126      -13.25763        2.74350
H          9.95707       -8.55498        1.75913
H         12.24004       -9.90912       -0.02420
H         13.99835       -9.70635       -0.14438
H         12.97726       -9.34496       -1.53500
H         14.58057       -7.60045       -2.22407
H         15.61469       -7.92483       -0.83479
H         15.50996       -6.27886       -1.48986
H         14.62248       -3.56035       -0.13470
H         17.18867       -0.24414       -1.70975
H         17.48801       -2.11695       -3.45152
H         18.47683       -3.75671       -4.85970
H         17.62961       -5.27905       -4.57490
H         19.31740       -5.11656       -4.10162
H         18.28575       -6.00017       -1.88228
H         18.04814       -6.45072        0.44305
H         16.54805       -5.71073        1.02053
H         18.09998       -5.06503        1.54194
H         16.85212       -2.92013        0.69254
H         16.51779        2.28425       -1.08058
H         11.71813        4.72834        3.43071
H         10.82544        6.20392        3.01260
H         12.04721        6.25157        4.28211
H         11.37804        8.54289        2.43137
H         12.81660        9.55272        2.18387
H         12.61915        8.61698        3.67939
H         15.19607        9.49563        0.00683
H         16.07452       13.65736       -1.44677
H         16.67026       11.12050        1.05072
H         16.57408       10.69893        3.61659
H         15.43328        9.49026        3.03787
H         14.95615       10.60334        4.32731
H         13.26972       12.04403        3.45022
H         12.05829       14.21937        2.79176
H         11.23904       13.12382        1.68359
H         11.97725       14.60297        1.06607
H         13.74285       13.88457       -0.36653
H         17.70181       13.95311       -3.57533
H         17.69737       17.22350       -3.56009
H         17.45609       18.37861       -4.88498
H         18.92959       18.44707       -3.92081
H         18.72643       19.18710       -6.86976
H         20.29735       18.86263       -7.63032
H         20.19768       19.25214       -5.90129
H         21.67849       12.23104       -9.54106
H         24.02985       11.88843      -13.36454
H         22.57670        9.79155      -13.46725
H         21.56207        7.64804      -13.53531
H         20.86976        7.01577      -12.03478
H         22.49900        6.55284      -12.51429
H         22.21749        7.55176       -9.85685
H         22.36549        9.87118       -7.66186
H         24.11675        9.93685       -7.83254
H         23.28117        8.37493       -7.83540
H         23.88774       11.47393       -9.77152
H         24.90981       14.12005      -14.53002
H         26.36743       12.56751      -16.94212
H         27.91932       12.84853      -17.75278
H         26.42581       12.87319      -18.68836
H         27.40473       14.55356      -20.22085
H         28.89998       14.52759      -19.28745
H         28.38987       16.02403      -20.09358
H         26.56962       19.43116      -17.09309
