174
d1a1.out	Energy:   -8906.6390299
C        -17.88757        6.12034       -2.04165
S        -16.19985        5.81563       -1.79938
C        -16.25649        4.57984       -2.98677
C        -15.35843        3.69845       -3.63729
S        -13.70765        3.25647       -3.57217
C        -18.46203        5.31135       -2.97372
C        -17.53610        4.40269       -3.52233
C        -17.47751        3.36815       -4.55327
C        -18.44642        2.83796       -5.32551
C        -19.87606        3.05840       -5.20332
C        -20.66666        3.15584       -6.34860
C        -22.03397        3.35444       -6.25466
C        -22.88011        3.49595       -7.48381
C        -22.61682        3.42938       -4.99490
C        -21.85813        3.29998       -3.83880
C        -22.51453        3.33663       -2.49147
C        -20.48951        3.11498       -3.95273
C        -16.06761        2.98262       -4.60745
C        -15.26639        2.07579       -5.30147
C        -13.95566        2.08978       -4.86881
C        -12.86525        1.27869       -5.31426
C        -11.63348        1.27968       -4.67169
C        -10.58368        0.45020       -5.04090
C        -12.98081        0.40395       -6.42934
N        -14.03285        0.25683       -7.23134
S        -13.68388       -0.82649       -8.36896
N        -12.18167       -1.16778       -7.90178
C        -11.88310       -0.44532       -6.82472
C        -10.66176       -0.45064       -6.09588
C         -9.59783       -1.35231       -6.40808
S         -8.11807       -1.33706       -5.45401
C         -7.50612       -2.64798       -6.36906
C         -6.39094       -3.50890       -6.34935
S         -4.96344       -3.74475       -5.43622
C         -9.57067       -2.32846       -7.38407
C         -8.38345       -3.06039       -7.38675
C         -7.80221       -4.21767       -8.06822
C         -8.27579       -4.95824       -9.09005
C         -9.47038       -4.68716       -9.86950
C         -9.79992       -3.39400      -10.26551
C        -10.96078       -3.14056      -10.98243
C        -11.30574       -1.73272      -11.36095
C        -11.78707       -4.20259      -11.31622
C        -11.46117       -5.51021      -10.96786
C        -12.36934       -6.63653      -11.36039
C        -10.29857       -5.74349      -10.25530
C         -6.55561       -4.47755       -7.35098
C         -5.51973       -5.40869       -7.37222
C         -4.57425       -5.17317       -6.39155
C         -3.42755       -5.95581       -6.05581
C         -2.60839       -5.63713       -4.97830
C         -1.54575       -6.42989       -4.57133
C         -3.07507       -7.13194       -6.77363
N         -3.66539       -7.61823       -7.86261
S         -2.90555       -8.96052       -8.32231
N         -1.79063       -8.99665       -7.16132
C         -1.96500       -7.95316       -6.35406
C         -1.19759       -7.61732       -5.20474
C         -0.16086       -8.46687       -4.71060
S          0.78707       -7.98027       -3.30889
C          1.63882       -9.46406       -3.36061
C          2.59718      -10.14902       -2.58775
S          3.52663       -9.90247       -1.17222
C          0.20452       -9.71680       -5.17028
C          1.23469      -10.28923       -4.42482
C          1.97205      -11.55072       -4.34715
C          1.91573      -12.64856       -5.12737
C          1.16728      -12.79687       -6.36229
C          1.10143      -11.77073       -7.30062
C          0.36055      -11.91462       -8.46529
C          0.28729      -10.78096       -9.44189
C         -0.30679      -13.10862       -8.69153
C         -0.22608      -14.16509       -7.78880
C         -0.94681      -15.44848       -8.07318
C          0.51991      -14.00419       -6.63505
C          2.80024      -11.41819       -3.15039
C          3.71063      -12.18597       -2.42800
C          4.19880      -11.52473       -1.31654
C          5.10567      -12.00654       -0.32335
C          5.49505      -11.22835        0.76094
C          6.33781      -11.68762        1.76290
C          5.65153      -13.31914       -0.37025
N          5.45592      -14.23983       -1.31111
S          6.29005      -15.56447       -0.93765
N          6.94147      -15.03958        0.43720
C          6.52980      -13.79568        0.67078
C          6.87178      -12.97052        1.77748
C          7.69933      -13.44100        2.84374
S          8.18085      -12.35171        4.14056
C          9.03204      -13.62511        4.90551
C          9.74882      -13.84243        6.10126
S         10.26178      -12.96334        7.47722
C          8.19700      -14.71486        3.03102
C          8.96794      -14.83106        4.18749
C          9.67510      -15.86659        4.94114
C          9.86303      -17.17255        4.66581
C          9.51028      -17.85370        3.43278
C          9.73421      -17.26350        2.19206
C          9.38156      -17.91379        1.01798
C          9.62214      -17.24502       -0.30083
C          8.80654      -19.17291        1.09655
C          8.60264      -19.80023        2.32219
C          7.98930      -21.16725        2.37010
C          8.96789      -19.13956        3.48164
C         10.12920      -15.19076        6.15377
C         10.83865      -15.50401        7.31251
C         10.99962      -14.41603        8.14579
C         11.65969      -14.36439        9.41764
C         11.75879      -13.19279       10.14959
C         12.39636      -13.12131       11.39464
C         12.24882      -15.52190       10.00046
N         12.29061      -16.75858        9.50921
S         13.06879      -17.70940       10.55091
N         13.39354      -16.61169       11.67607
C         12.90163      -15.43545       11.28322
C         12.97092      -14.21900       11.97882
H        -18.35432        6.89400       -1.46476
H        -19.49670        5.38151       -3.25613
H        -18.13911        2.16908       -6.12070
H        -20.19691        3.09808       -7.32038
H        -22.33688        3.17761       -8.36990
H        -23.17353        4.53732       -7.61771
H        -23.78839        2.90292       -7.39508
H        -23.68457        3.57898       -4.91439
H        -23.31698        4.07116       -2.47200
H        -21.79374        3.57888       -1.71415
H        -22.94703        2.36246       -2.26150
H        -19.88965        2.97797       -3.06538
H        -15.59406        1.42321       -6.08892
H        -11.49429        1.94196       -3.82954
H         -9.66740        0.49400       -4.47013
H        -10.40774       -2.49149       -8.03590
H         -7.73173       -5.85877       -9.34912
H         -9.12901       -2.58123      -10.03232
H        -10.49506       -1.28144      -11.93098
H        -11.45272       -1.13695      -10.46084
H        -12.21477       -1.69726      -11.95584
H        -12.69792       -4.01723      -11.86853
H        -12.56743       -6.61108      -12.43088
H        -13.32441       -6.54739      -10.84325
H        -11.92982       -7.59838      -11.10909
H        -10.03691       -6.75173       -9.96630
H         -5.43626       -6.24090       -8.04601
H         -2.82602       -4.74069       -4.41602
H         -0.97555       -6.12327       -3.70642
H         -0.29568      -10.17519       -6.00208
H          2.46401      -13.52284       -4.79680
H          1.65696      -10.86095       -7.13126
H          1.28058      -10.53873       -9.81760
H         -0.10855       -9.89476       -8.94828
H         -0.35318      -11.02947      -10.28425
H         -0.89280      -13.23032       -9.59199
H         -0.69361      -15.81622       -9.06632
H         -2.02449      -15.28942       -8.04212
H         -0.69015      -16.21072       -7.34200
H          0.58381      -14.81064       -5.91805
H          4.01683      -13.18734       -2.66655
H          5.11280      -10.22039        0.83235
H          6.58051      -11.02148        2.57815
H          7.97562      -15.51012        2.34498
H         10.30560      -17.78823        5.43989
H         10.21448      -16.29800        2.14340
H          9.14046      -16.26886       -0.31383
H          9.23057      -17.84188       -1.12057
H         10.68934      -17.09338       -0.45886
H          8.52063      -19.68656        0.18909
H          8.50267      -21.84085        1.68595
H          6.94314      -21.11979        2.06805
H          8.03855      -21.58240        3.37345
H          8.80849      -19.60893        4.44223
H         11.22827      -16.47192        7.56737
H         11.32341      -12.29235        9.74069
H         12.42974      -12.16791       11.90060
H         13.46325      -14.17636       12.93614
