174
d1a2.out	Energy:  -16923.8384437
C        -18.33030        7.28024       -6.85295
S        -17.59509        6.13538       -5.78136
C        -16.56517        5.61394       -7.04883
C        -15.48196        4.71726       -7.22377
S        -14.58835        3.57006       -6.31949
C        -17.81748        7.25729       -8.11408
C        -16.80489        6.28836       -8.25052
C        -15.85171        5.81749       -9.25377
C        -15.68249        6.17619      -10.54119
C        -16.54174        7.04595      -11.32597
C        -15.97545        7.95837      -12.21810
C        -16.77104        8.79461      -12.98098
C        -16.16831        9.79581      -13.91973
C        -18.15435        8.69414      -12.86804
C        -18.74325        7.77116      -12.01668
C        -20.23432        7.65968      -11.90768
C        -17.92859        6.95151      -11.24808
C        -15.02492        4.84250       -8.54148
C        -13.95037        4.00058       -8.81298
C        -13.57859        3.24109       -7.71505
C        -12.51291        2.29147       -7.62882
C        -11.67150        1.99651       -8.69557
C        -10.62544        1.08593       -8.60985
C        -10.32218        0.38478       -7.44782
C        -11.16428        0.64216       -6.32888
C        -12.25026        1.58897       -6.41828
N        -12.94469        1.72596       -5.29881
Se       -12.28016        0.67461       -4.06399
N        -11.04079        0.06603       -5.14303
C         -9.23646       -0.54002       -7.35761
S         -8.93474       -1.42991       -5.87821
C         -7.59160       -2.20561       -6.60894
C         -6.56285       -3.09887       -6.24185
S         -6.06043       -4.00660       -4.87716
C         -8.32152       -0.85574       -8.34983
C         -7.39560       -1.81218       -7.94633
C         -6.20851       -2.48572       -8.47269
C         -5.63591       -2.43089       -9.69088
C         -6.16311       -1.76762      -10.87097
C         -5.29837       -1.08622      -11.72858
C         -5.77685       -0.43752      -12.85387
C         -4.85545        0.31653      -13.76462
C         -7.13856       -0.49046      -13.13239
C         -8.01496       -1.19228      -12.31657
C         -9.47441       -1.27631      -12.65015
C         -7.51714       -1.83271      -11.19163
C         -5.70439       -3.26222       -7.34215
C         -4.64496       -4.11791       -7.06889
C         -4.67732       -4.60948       -5.77150
C         -3.73674       -5.48630       -5.15014
C         -2.58757       -5.94220       -5.78890
C         -1.66052       -6.77774       -5.18050
C         -1.79668       -7.24043       -3.87532
C         -2.96420       -6.81223       -3.18204
C         -3.92535       -5.93970       -3.81321
N         -4.95691       -5.62198       -3.04636
Se        -4.78732       -6.39807       -1.48399
N         -3.27143       -7.15223       -1.93950
C         -0.82941       -8.07988       -3.24294
S         -1.05089       -8.61081       -1.58754
C          0.44471       -9.44779       -1.64919
C          1.21862      -10.28855       -0.82381
S          1.17095      -10.94693        0.75553
C          0.35693       -8.54907       -3.78575
C          1.10043       -9.30724       -2.88739
C          2.34783      -10.07116       -2.85638
C          3.30285      -10.23690       -3.79220
C          3.39410       -9.55355       -5.07093
C          3.11870       -8.19045       -5.18173
C          3.20105       -7.54525       -6.40414
C          2.90874       -6.07877       -6.51450
C          3.57356       -8.27566       -7.52732
C          3.88375       -9.62547       -7.43931
C          4.31364      -10.40077       -8.64811
C          3.80202      -10.25283       -6.20469
C          2.35982      -10.69278       -1.53451
C          3.19210      -11.52628       -0.79386
C          2.70298      -11.77608        0.47541
C          3.27751      -12.57802        1.50844
C          2.64901      -12.74984        2.73637
C          3.17726      -13.51181        3.76935
C          4.39471      -14.17523        3.66624
C          5.07906      -14.03297        2.42535
C          4.52999      -13.24309        1.34523
N          5.29122      -13.21558        0.26009
Se         6.73565      -14.17378        0.52735
N          6.24619      -14.59520        2.15362
C          4.95180      -14.94994        4.73029
S          6.52944      -15.69527        4.56799
C          6.40693      -16.31946        6.15920
C          7.15092      -17.15016        7.02492
S          8.64620      -17.98565        7.04652
C          4.38499      -15.19798        5.97069
C          5.20709      -15.95675        6.79811
C          5.17411      -16.56285        8.12966
C          4.23772      -16.50205        9.09610
C          3.04707      -15.66904        9.09929
C          1.84149      -16.18285        9.57934
C          0.69108      -15.41336        9.58117
C         -0.61231      -15.96841       10.07078
C          0.75694      -14.10385        9.11589
C          1.95085      -13.55629        8.66894
C          2.02154      -12.13179        8.20693
C          3.09202      -14.34544        8.66872
C          6.41752      -17.32624        8.20904
C          7.07768      -18.13614        9.12682
C          8.30168      -18.58516        8.65733
C          9.23740      -19.43678        9.33151
C          9.01347      -19.94955       10.59841
C          9.93431      -20.78158       11.25099
C         11.12251      -21.14518       10.67769
C         11.41174      -20.65782        9.39048
C         10.46961      -19.80027        8.70979
N         10.85836      -19.40926        7.50660
Se        12.43259      -20.09685        7.15544
N         12.51751      -20.91630        8.69886
H        -19.11001        7.90962       -6.47183
H        -18.14702        7.91750       -8.89545
H        -14.81341        5.78667      -11.05830
H        -14.89900        8.02346      -12.29299
H        -15.08834        9.68350      -13.96971
H        -16.39537       10.80819      -13.58652
H        -16.57975        9.67555      -14.92077
H        -18.77944        9.34151      -13.46730
H        -20.72640        8.19770      -12.71393
H        -20.57372        8.07763      -10.95951
H        -20.54356        6.61668      -11.93924
H        -18.37217        6.20605      -10.60487
H        -13.45298        3.94185       -9.76376
H        -11.82851        2.49568       -9.63880
H        -10.02377        0.92468       -9.49077
H         -8.32349       -0.38783       -9.31643
H         -4.67754       -2.92062       -9.81649
H         -4.24422       -1.04681      -11.49252
H         -3.81818        0.18154      -13.46930
H         -5.08660        1.38109      -13.73757
H         -4.97387       -0.02313      -14.79244
H         -7.51741        0.01603      -14.00932
H         -9.79010       -0.41527      -13.23485
H        -10.07687       -1.33161      -11.74579
H         -9.67071       -2.17350      -13.23774
H         -8.17960       -2.41404      -10.56789
H         -3.87773       -4.37617       -7.77557
H         -2.39486       -5.63020       -6.80323
H         -0.79524       -7.07388       -5.75280
H          0.65316       -8.35262       -4.79908
H          4.08452      -10.95794       -3.58507
H          2.86650       -7.63069       -4.29345
H          2.28304       -5.74308       -5.69056
H          2.40840       -5.85358       -7.45416
H          3.83871       -5.51031       -6.48651
H          3.63290       -7.77737       -8.48504
H          4.20962       -9.80541       -9.55157
H          3.71735      -11.30559       -8.75380
H          5.35697      -10.69992       -8.55041
H          4.03255      -11.30575       -6.12417
H          4.11712      -11.95088       -1.13500
H          1.69821      -12.26141        2.89506
H          2.61396      -13.58399        4.68636
H          3.40585      -14.85271        6.24506
H          4.36657      -17.14173        9.96116
H          1.80593      -17.20497        9.92931
H         -0.48320      -16.96875       10.47581
H         -1.33223      -16.01604        9.25424
H         -1.03124      -15.32844       10.84592
H         -0.13969      -13.49975        9.11464
H          1.03682      -11.75985        7.93675
H          2.68380      -12.03452        7.34932
H          2.41595      -11.50112        9.00328
H          4.03593      -13.92314        8.35756
H          6.68890      -18.39346       10.09503
H          8.09723      -19.70566       11.11221
H          9.68732      -21.14191       12.23889
H         11.83296      -21.78439       11.17550
