218
d1a5.out	Energy:   -9965.9742816
C         24.95156       -7.14373       -1.67688
S         24.80261       -5.54163       -2.32187
C         23.52785       -5.21719       -1.21976
C         22.71417       -4.12176       -0.85347
S         22.43045       -2.48864       -1.31672
C         24.06715       -7.41476       -0.67705
C         23.22503       -6.31958       -0.40920
C         22.16606       -5.93751        0.52195
C         21.53793       -6.64205        1.48320
C         21.65520       -8.06651        1.74180
C         21.66500       -8.53636        3.05489
C         21.77133       -9.89038        3.32692
C         21.78249      -10.39359        4.73931
C         21.84252      -10.78470        2.26593
C         21.79913      -10.34639        0.94835
C         21.83747      -11.33460       -0.17884
C         21.70464       -8.98743        0.69630
C         21.90338       -4.53016        0.21682
C         21.05798       -3.52250        0.66049
C         21.21426       -2.34480       -0.05976
C         20.51282       -1.12486        0.11138
C         19.53747       -0.90657        1.10436
N         19.17632       -1.78825        2.03470
S         18.05767       -1.20739        3.02505
N         17.97868        0.29067        2.24644
C         18.84403        0.35486        1.19419
C         20.76574       -0.02492       -0.75022
N         21.71332       -0.19139       -1.68221
C         21.98205        0.76322       -2.54181
C         23.05570        0.51086       -3.54639
C         21.25489        1.97187       -2.48949
C         21.48348        3.07596       -3.46934
N         20.33961        2.16748       -1.56334
C         20.06547        1.21251       -0.66777
C         19.05769        1.42960        0.33792
C         18.33466        2.66491        0.41184
S         16.80509        2.81406        1.30051
C         16.65421        4.45741        0.83330
C         15.72026        5.49378        0.95798
S         14.20062        5.81229        1.71059
C         18.66005        3.86384       -0.19489
C         17.74001        4.87995        0.04165
C         17.50361        6.26561       -0.35946
C         18.24587        7.09972       -1.11369
C         19.58583        6.85657       -1.61857
C         19.93361        7.29246       -2.89788
C         21.20183        7.06862       -3.40661
C         21.55646        7.50119       -4.79748
C         22.13852        6.41431       -2.61428
C         21.82827        5.99633       -1.32789
C         22.83354        5.27362       -0.48368
C         20.55301        6.23016       -0.83589
C         16.20026        6.59409        0.21675
C         15.33315        7.67134        0.24459
C         14.19128        7.41797        1.00208
C         13.09328        8.27774        1.22259
C         12.95311        9.55414        0.63691
N         13.82806       10.11586       -0.18984
S         13.34031       11.55396       -0.71147
N         11.89790       11.51136        0.17091
C         11.77700       10.35310        0.88236
C         12.02631        7.87092        2.06895
N         12.12688        6.65851        2.62603
C         11.20939        6.22815        3.46260
C         11.37736        4.86001        4.03377
C         10.12465        7.06569        3.79272
C          9.09480        6.66706        4.79868
N          9.98325        8.24368        3.21887
C         10.88861        8.68227        2.33870
C         10.72316        9.96568        1.70252
C          9.54197       10.74894        1.91611
S          9.44303       12.46447        1.47341
C          7.82097       12.55084        2.02304
C          6.81746       13.51821        2.16061
S          6.53357       15.18122        1.79855
C          8.34736       10.32476        2.46958
C          7.37056       11.31342        2.52294
C          6.00291       11.48633        3.00954
C          5.15598       10.60913        3.58271
C          5.35200        9.17819        3.73689
C          4.93136        8.54470        4.90796
C          5.10425        7.18305        5.08216
C          4.68288        6.50470        6.35095
C          5.69028        6.44291        4.06005
C          6.09219        7.04208        2.87560
C          6.73885        6.24645        1.78247
C          5.91138        8.40884        2.72016
C          5.71050       12.90075        2.77976
C          4.65335       13.77267        2.96821
C          4.92828       15.05479        2.49679
C          4.08158       16.18438        2.52509
C          2.79357       16.19681        3.10189
N          2.21640       15.16556        3.70870
S          0.76208       15.52987        4.28443
N          0.81868       17.12796        3.73042
C          1.99385       17.39752        3.09318
C          4.50815       17.41129        1.94733
N          5.73236       17.43114        1.40775
C          6.18288       18.51198        0.81064
C          7.56066       18.46564        0.23958
C          5.35897       19.65205        0.72480
C          5.78847       20.88659        0.00139
N          4.16561       19.66612        1.28509
C          3.70263       18.58410        1.91838
C          2.39697       18.60292        2.52972
C          1.60293       19.79573        2.53914
S         -0.13786       19.77475        2.87830
C         -0.22873       21.47761        2.69343
C         -1.20688       22.47826        2.71613
S         -2.89224       22.65339        2.99770
C          2.03297       21.08678        2.29111
C          1.02651       22.04176        2.38972
C          0.85283       23.48170        2.20937
C          1.74153       24.44174        1.88550
C          3.18122       24.29591        1.76282
C          3.85855       24.96668        0.74248
C          5.22880       24.84232        0.59632
C          5.95448       25.53377       -0.51844
C          5.93225       24.04919        1.49741
C          5.28853       23.39549        2.53762
C          6.04554       22.52694        3.49587
C          3.91397       23.53201        2.66730
C         -0.57859       23.70571        2.40790
C         -1.46014       24.76870        2.40253
C         -2.76863       24.38707        2.70016
C         -3.92302       25.19685        2.78128
C         -5.16960       24.61552        3.11340
N         -5.35071       23.32698        3.36267
S         -6.88315       22.97259        3.71084
N         -7.41001       24.58985        3.54378
C         -6.36647       25.40943        3.20679
C         -3.93159       26.61019        2.54483
N         -2.79471       27.24574        2.22169
C         -2.81235       28.54318        2.00328
C         -1.51358       29.19289        1.64652
C         -4.01189       29.28137        2.10364
C         -4.05913       30.75440        1.85904
N         -5.14158       28.68539        2.41992
C         -5.14085       27.36250        2.64566
C         -6.37124       26.75067        2.98210
H         25.69946       -7.79289       -2.08752
H         24.04036       -8.35479       -0.15631
H         20.87046       -6.09844        2.14137
H         21.61270       -7.82716        3.86909
H         22.03324       -9.59666        5.43497
H         22.50121      -11.20232        4.85511
H         20.79816      -10.78075        5.00458
H         21.92275      -11.84358        2.46981
H         22.57773      -12.10918        0.01282
H         22.07609      -10.84312       -1.11893
H         20.86668      -11.81961       -0.28401
H         21.63741       -8.63166       -0.32100
H         20.35099       -3.60181        1.46445
H         17.43840        1.06687        2.59091
H         23.47565       -0.47638       -3.37884
H         23.84093        1.26043       -3.45928
H         22.64957        0.56463       -4.55551
H         22.50875        3.43712       -3.40363
H         20.80369        3.89727       -3.26110
H         21.31709        2.71899       -4.48474
H         19.54005        3.95267       -0.80061
H         17.80204        8.04928       -1.38837
H         19.19266        7.79352       -3.50490
H         21.38240        6.68227       -5.49655
H         22.60598        7.77969       -4.86143
H         20.94692        8.34588       -5.10936
H         23.13078        6.23917       -3.00682
H         22.83784        5.66563        0.53148
H         23.83405        5.36272       -0.89992
H         22.57505        4.21530       -0.43027
H         20.31255        5.95096        0.17856
H         15.47840        8.61235       -0.25138
H         11.17311       12.20223        0.07275
H         12.27446        4.40907        3.62026
H         10.51469        4.24015        3.79359
H         11.46416        4.91054        5.11826
H          8.59630        5.74918        4.49152
H          8.35595        7.45705        4.89862
H          9.56360        6.48843        5.76556
H          8.23119        9.32029        2.82554
H          4.23059       11.00406        3.98519
H          4.48283        9.13505        5.69463
H          5.56027        6.21011        6.92714
H          4.11018        5.60493        6.13298
H          4.07672        7.16641        6.96433
H          5.82202        5.37762        4.19201
H          7.79955        6.49350        1.72442
H          6.29096        6.48146        0.81879
H          6.64288        5.17852        1.96322
H          6.17803        8.87960        1.78623
H          3.70995       13.53331        3.42129
H          0.12203       17.81566        3.96373
H          7.53033       18.63432       -0.83598
H          7.99659       17.49157        0.44019
H          8.18248       19.24115        0.68461
H          6.69788       21.29107        0.44290
H          5.00272       21.63465        0.05636
H          5.99448       20.65741       -1.04337
H          3.05458       21.28669        2.03521
H          1.34807       25.42915        1.67519
H          3.29635       25.57340        0.04652
H          5.31529       26.26601       -1.00507
H          6.27289       24.80613       -1.26526
H          6.84384       26.03724       -0.14361
H          7.00370       23.95284        1.38720
H          7.11814       22.67807        3.40116
H          5.82538       21.47788        3.29445
H          5.74976       22.73642        4.52202
H          3.40707       23.06632        3.49859
H         -1.22355       25.79513        2.19706
H         -8.36003       24.89017        3.66266
H         -0.72526       28.44576        1.62878
H         -1.26045       29.96229        2.37478
H         -1.58122       29.66509        0.66724
H         -3.72697       30.98275        0.84712
H         -3.40387       31.27701        2.55470
H         -5.07810       31.10633        1.99117
H         -7.25926       27.35634        3.04795
