186
d2a11.out	Energy:  -10254.3822580
C         14.14485      -13.54106        8.90394
S         13.30172      -12.03106        8.82598
C         14.47983      -11.43142        7.73736
C         14.78334      -10.21486        7.07799
S         14.13475       -8.63994        6.90483
C         15.26508      -13.58357        8.13046
C         15.46811      -12.37609        7.43514
C         16.45033      -11.76192        6.54469
C         17.57865      -12.25050        5.99456
C         18.04288      -13.62636        6.01989
C         17.16026      -14.69328        5.83816
C         17.61958      -15.99466        5.83077
C         18.97419      -16.24729        6.01188
C         19.47582      -17.66068        5.97530
F         18.58503      -18.54260        6.45677
F         19.75663      -18.06552        4.71849
F         20.60401      -17.83553        6.68073
C         19.87055      -15.19730        6.17103
C         19.40554      -13.89831        6.16397
C         15.98072      -10.38539        6.37064
C         16.37220       -9.24320        5.68130
C         15.48216       -8.19515        5.86538
C         15.58990       -6.90332        5.31446
C         16.59333       -6.42180        4.46369
N         17.66340       -7.09910        4.00304
C         18.48546       -6.45506        3.21213
C         19.67136       -7.20858        2.70713
C         18.27451       -5.08792        2.83767
C         19.21979       -4.37257        1.93314
N         17.24158       -4.41509        3.27757
C         16.39122       -5.06008        4.09060
C         15.24775       -4.48355        4.64902
S         14.42222       -5.65053        5.63307
C         14.83533       -3.15665        4.45068
S         15.79054       -2.13812        3.38774
C         14.71610       -0.83625        3.69496
C         14.61709        0.52817        3.37344
S         15.45014        1.68136        2.42260
C         13.74320       -2.49507        4.99496
C         13.65756       -1.17647        4.56231
C         12.84128        0.01652        4.79927
C         11.73583        0.18608        5.54894
C         10.96933       -0.85643        6.21124
C         10.44710       -0.63499        7.48765
C          9.71367       -1.61191        8.12868
C          9.46818       -2.82029        7.48622
C          8.68772       -3.88032        8.20655
F          7.63159       -3.37934        8.87181
F          8.20686       -4.83067        7.39269
F          9.43516       -4.51908        9.13014
C          9.95212       -3.04611        6.20414
C         10.69453       -2.06769        5.57368
C         13.51188        1.07901        4.04849
C         13.34585        2.43469        3.79806
C         14.31615        2.92703        2.93343
C         14.46462        4.24396        2.46570
C         13.72523        5.38668        2.80369
N         12.69953        5.43813        3.67320
C         12.13020        6.60327        3.86161
C         10.99781        6.66084        4.83196
C         12.56679        7.77852        3.17166
C         11.89625        9.09464        3.37890
N         13.57064        7.75033        2.33026
C         14.17328        6.56486        2.12852
C         15.25552        6.33216        1.26800
S         15.69783        4.65512        1.31398
C         15.93304        7.25988        0.45890
S         17.23026        6.74411       -0.61011
C         17.43867        8.36090       -1.13446
C         18.21387        9.05885       -2.07423
S         19.44070        8.73203       -3.22277
C         15.70370        8.62804        0.39115
C         16.56561        9.26460       -0.49321
C         16.80516       10.60493       -1.03327
C         16.21377       11.77975       -0.74474
C         15.25832       12.02883        0.32232
C         15.43933       11.48798        1.59644
C         14.53466       11.74149        2.60800
C         13.43053       12.54475        2.35432
C         12.41882       12.83563        3.42300
F         12.66153       12.20055        4.57901
F         12.34970       14.14724        3.71941
F         11.17221       12.47691        3.05477
C         13.24712       13.11338        1.09813
C         14.16233       12.86528        0.09646
C         17.84259       10.41662       -2.04769
C         18.56111       11.18954       -2.94926
C         19.47071       10.43177       -3.67741
C         20.33935       10.88146       -4.68646
C         20.53224       12.19198       -5.14594
N         19.90988       13.29157       -4.68312
C         20.23434       14.43888       -5.22593
C         19.54042       15.65682       -4.71376
C         21.21222       14.53172       -6.26660
C         21.59462       15.84830       -6.85382
N         21.81304       13.47031       -6.74429
C         21.49079       12.28125       -6.20279
C         22.02849       11.03891       -6.56838
S         21.35422        9.78684       -5.57426
C         22.94860       10.77097       -7.59801
S         23.51273        9.13691       -7.92058
C         24.44307        9.71689       -9.23693
C         25.35076        9.20680      -10.18559
S         26.03406        7.70267      -10.63836
C         23.47956       11.69652       -8.48550
C         24.30789       11.10579       -9.43231
C         25.14876       11.50314      -10.56354
C         25.34197       12.71003      -11.12915
C         24.61738       13.93472      -10.83410
C         25.29413       15.15674      -10.80370
C         24.61962       16.32960      -10.53563
C         23.24629       16.29923      -10.31651
C         22.54211       17.59103      -10.02467
F         22.71758       18.50221      -10.99946
F         21.21689       17.45612       -9.86783
F         22.99311       18.17273       -8.89405
C         22.55117       15.09848      -10.37806
C         23.23526       13.92782      -10.63694
C         25.80637       10.26799      -10.98609
C         26.69917        9.85780      -11.97030
C         26.93719        8.49376      -11.92312
C         27.78746        7.75864      -12.77968
C         28.51782        8.23627      -13.87089
N         28.55045        9.50634      -14.31947
C         29.29253        9.75017      -15.36823
C         29.32487       11.15737      -15.86632
C         30.04960        8.71790      -16.02242
C         30.88804        9.02734      -17.21824
N         30.03782        7.48189      -15.60840
C         29.27350        7.20264      -14.52595
C         29.11438        5.97163      -13.93504
S         28.05538        6.05572      -12.59561
H         13.74977      -14.31626        9.52979
H         15.91167      -14.44076        8.08378
H         18.22227      -11.55098        5.47569
H         16.11421      -14.49075        5.66985
H         16.93448      -16.81628        5.68619
H         20.92242      -15.40286        6.29814
H         20.09938      -13.08051        6.28838
H         17.24777       -9.12737        5.07028
H         19.65295       -8.21971        3.10355
H         20.59323       -6.71798        3.01614
H         19.66068       -7.24953        1.61897
H         20.21926       -4.35066        2.36518
H         18.86840       -3.35525        1.78611
H         19.28073       -4.87648        0.96958
H         13.07710       -2.98092        5.68514
H         11.37214        1.19669        5.68629
H         10.63766        0.30471        7.98381
H          9.32133       -1.44273        9.11992
H          9.74200       -3.97952        5.70478
H         11.04635       -2.22610        4.56638
H         12.58344        3.07686        4.19813
H         10.84096        5.67647        5.26354
H         10.08527        6.98286        4.33225
H         11.21448        7.37343        5.62618
H         10.82731        9.01828        3.18891
H         12.32790        9.82458        2.69961
H         12.03086        9.43679        4.40426
H         14.92307        9.08080        0.97292
H         16.45721       12.63139       -1.36756
H         16.31142       10.88628        1.79672
H         14.68312       11.31868        3.58957
H         12.39196       13.74709        0.91766
H         14.02133       13.30501       -0.87937
H         18.46442       12.24635       -3.11456
H         18.82681       15.37059       -3.94642
H         19.01783       16.16477       -5.52277
H         20.26108       16.35461       -4.28974
H         20.74983       16.29484       -7.37680
H         22.41288       15.70290       -7.55365
H         21.90962       16.54088       -6.07558
H         23.24437       12.74007       -8.39345
H         26.11592       12.79205      -11.88208
H         26.36004       15.17845      -10.97362
H         25.14615       17.27134      -10.49945
H         21.48306       15.08181      -10.22649
H         22.69418       12.99862      -10.71546
H         27.17804       10.47899      -12.70402
H         28.67472       11.77271      -15.25076
H         28.98862       11.20379      -16.90103
H         30.33873       11.55306      -15.82376
H         31.63911        9.77703      -16.97419
H         30.27000        9.41853      -18.02509
H         31.38083        8.11870      -17.55176
H         29.55864        5.03999      -14.21851
