262
d2a10.out	Energy:  -10206.6721167
C         24.79273       19.01262       10.32424
S         23.35185       18.05847       10.25743
C         23.74500       17.58029        8.66169
C         23.23182       16.70556        7.66864
S         21.88576       15.69417        7.41651
C         25.53231       18.97209        9.18063
C         24.93270       18.15799        8.20093
C         25.21165       17.65627        6.85586
C         26.22979       17.92004        6.01479
C         27.25811       18.93268        6.18676
C         28.57943       18.65468        5.83156
C         29.56694       19.60783        5.97887
C         29.23550       20.86859        6.45811
C         30.29361       21.91486        6.65108
F         31.41963       21.66286        5.96920
F         29.88464       23.13834        6.27422
F         30.65693       22.03014        7.94601
C         27.91940       21.17387        6.78611
C         26.94034       20.21133        6.64990
C         24.12000       16.71983        6.58294
C         23.71150       15.88761        5.54985
C         22.51752       15.23410        5.83051
C         21.73824       14.31283        5.08230
C         20.44516       13.91586        5.41787
C         19.41340       14.11660        6.39232
O         19.37969       14.76498        7.42418
N         18.32385       13.36221        5.92107
C         17.14594       13.28748        6.74860
C         17.30450       12.27945        7.89924
C         16.07069       12.34354        8.79373
C         17.52170       10.85936        7.38609
C         18.62158       12.71371        4.74204
C         19.94352       13.04070        4.41952
C         20.99176       12.86134        3.45115
O         21.06837       12.18733        2.43519
N         22.05156       13.67170        3.90077
C         23.29721       13.61940        3.17633
C         24.20286       12.46177        3.62930
C         25.46628       12.45308        2.77411
C         24.55859       12.55095        5.11078
C         17.76588       11.90583        3.95238
S         16.06442       11.59598        4.28807
C         15.94216       10.63346        2.88470
C         14.97754        9.82101        2.25445
S         13.33279        9.41164        2.43215
C         18.17272       11.27614        2.78077
C         17.14946       10.56649        2.16572
C         16.95943        9.67934        1.01571
C         17.83296        9.33382        0.05241
C         19.14685        9.92898       -0.14848
C         20.25565        9.12387       -0.41062
C         21.50177        9.68682       -0.59449
C         21.64475       11.06838       -0.54996
C         23.00081       11.66211       -0.77996
F         23.33014       11.68175       -2.09093
F         23.11462       12.92978       -0.35712
F         23.98314       10.97480       -0.17182
C         20.54460       11.88590       -0.33558
C         19.30584       11.31465       -0.12913
C         15.58133        9.20807        1.14041
C         14.70596        8.37663        0.45556
C         13.43821        8.35317        1.02495
C         12.24188        7.67488        0.66924
C         10.97755        8.02590        1.13464
C         10.27584        8.99841        1.92516
O         10.66596        9.90168        2.64393
N          8.91214        8.70420        1.72662
C          7.93452        9.37764        2.54589
C          7.81587        8.75464        3.94734
C          6.84744        9.58468        4.78477
C          7.35480        7.30137        3.87961
C          8.74811        7.60273        0.91089
C         10.01281        7.16830        0.54364
C         10.71332        6.23287       -0.29712
O         10.33059        5.30685       -0.98302
N         12.07361        6.60619       -0.18760
C         13.05987        5.75835       -0.80900
C         13.46127        4.56726        0.07722
C         14.38188        3.64263       -0.71410
C         14.13505        5.02005        1.36922
C          7.51147        7.01231        0.52230
S          7.50485        5.28820        0.18828
C          5.81947        5.34261       -0.08154
C          4.77553        4.44988       -0.42597
S          4.54297        2.77948       -0.68495
C          6.25785        7.57944        0.37272
C          5.28482        6.63810        0.04860
C          3.85021        6.59542       -0.23035
C          2.92756        7.57604       -0.23291
C          3.12155        8.95276        0.19445
C          2.56492        9.99812       -0.54444
C          2.73598       11.31083       -0.15264
C          3.45350       11.59248        1.00257
C          3.62894       13.00965        1.46426
F          3.47771       13.90724        0.48049
F          2.73662       13.34395        2.41904
F          4.84203       13.22760        1.99950
C          3.97903       10.56252        1.77427
C          3.81345        9.25367        1.36981
C          3.58628        5.19137       -0.53850
C          2.48465        4.39984       -0.82431
C          2.81297        3.05207       -0.92490
C          2.00651        1.90855       -1.14362
C          2.47488        0.59940       -1.22934
C          3.66759       -0.19598       -1.19105
O          4.84179        0.10395       -1.07229
N          3.21877       -1.52428       -1.34003
C          4.20841       -2.57217       -1.35830
C          4.76678       -2.88094        0.04198
C          3.66055       -3.19326        1.04563
C          5.75814       -4.03526       -0.06396
C          1.84569       -1.59096       -1.45897
C          1.37793       -0.27621       -1.41739
C          0.18791        0.52417       -1.47179
O         -0.98254        0.23332       -1.64889
N          0.63474        1.84877       -1.29258
C         -0.33660        2.90803       -1.20972
C         -0.58926        3.37901        0.23227
C         -1.54893        4.56551        0.21539
C         -1.15656        2.23739        1.07082
C          1.01227       -2.73415       -1.58174
S         -0.69859       -2.41423       -1.88211
C         -1.01394       -4.08928       -1.89286
C         -2.11223       -4.94832       -2.11068
S         -3.78121       -4.83744       -2.44461
C          1.26909       -4.09756       -1.48048
C          0.12824       -4.87532       -1.63850
C         -0.24495       -6.29010       -1.69325
C          0.48077       -7.41271       -1.53684
C          1.85705       -7.51246       -1.07852
C          2.29877       -6.78556        0.02789
C          3.58848       -6.93211        0.50069
C          4.46019       -7.79787       -0.14617
C          5.87721       -7.96070        0.32129
F          6.14717       -7.29069        1.44949
F          6.19266       -9.24707        0.55609
F          6.76273       -7.52547       -0.59771
C          4.03560       -8.53440       -1.24690
C          2.73767       -8.40383       -1.69561
C         -1.67027       -6.27829       -2.01807
C         -2.68808       -7.20080       -2.20637
C         -3.91601       -6.59520       -2.44937
C         -5.11146       -7.31999       -2.68443
C         -5.21073       -8.70893       -2.73589
C         -4.47193       -9.93743       -2.61953
O         -3.29878      -10.18393       -2.38390
N         -5.43174      -10.94282       -2.85731
C         -5.12431      -12.34564       -2.77167
C         -5.72809      -13.00479       -1.52161
C         -5.40338      -14.49542       -1.52691
C         -5.19680      -12.33834       -0.25609
C         -6.65927      -10.41067       -3.10177
C         -6.56946       -9.04942       -3.03782
C         -7.31743       -7.82153       -3.17432
O         -8.47642       -7.59604       -3.44134
N         -6.36427       -6.80539       -2.93318
C         -6.78399       -5.42855       -2.89973
C         -6.94360       -4.88463       -1.47053
C         -7.22244       -3.38637       -1.53196
C         -8.06293       -5.61947       -0.73939
H         25.00841       19.55506       11.22327
H         26.46524       19.49320        9.06736
H         26.30780       17.32564        5.11298
H         28.83383       17.67485        5.45636
H         30.58904       19.38254        5.71614
H         27.67004       22.16349        7.13791
H         25.91321       20.45200        6.87519
H         24.25555       15.78171        4.63144
H         16.26954       13.05080        6.14739
H         17.01503       14.28402        7.18340
H         18.18095       12.58391        8.48066
H         15.18046       12.06838        8.23170
H         15.93497       13.34684        9.18955
H         16.17518       11.65664        9.62969
H         16.64302       10.51018        6.84796
H         17.70120       10.18548        8.22052
H         18.38172       10.80834        6.72124
H         23.81811       14.57123        3.24841
H         23.03059       13.45460        2.12817
H         23.65322       11.53053        3.45631
H         26.03165       13.37185        2.91937
H         25.21755       12.36293        1.72094
H         26.10061       11.61388        3.04712
H         25.11715       13.46048        5.32215
H         25.17313       11.69983        5.39487
H         23.66534       12.54287        5.73141
H         19.18335       11.34574        2.42095
H         17.55004        8.55559       -0.64549
H         20.14098        8.05060       -0.44056
H         22.36493        9.06275       -0.77038
H         20.66126       12.95757       -0.31669
H         18.44497       11.94396        0.03422
H         14.97380        7.83939       -0.43437
H          6.96372        9.37804        2.05571
H          8.28173       10.41009        2.65062
H          8.80624        8.79150        4.41209
H          5.84578        9.54178        4.36100
H          7.16498       10.62355        4.82428
H          6.80242        9.20116        5.80087
H          6.38989        7.22644        3.38057
H          7.25329        6.89544        4.88332
H          8.07056        6.68574        3.33965
H         13.93684        6.33657       -1.09255
H         12.58847        5.36798       -1.71684
H         12.54560        4.02199        0.32846
H         15.29820        4.16119       -0.99024
H         13.89198        3.29785       -1.62124
H         14.64753        2.77395       -0.11725
H         14.39990        4.15514        1.97286
H         15.04397        5.57941        1.15552
H         13.47235        5.65046        1.95774
H          6.07684        8.63607        0.43358
H          1.93580        7.33625       -0.59515
H          2.01056        9.77613       -1.44378
H          2.31760       12.11588       -0.73683
H          4.51384       10.79633        2.68275
H          4.19324        8.44728        1.97822
H          1.49421        4.78880       -0.95298
H          5.03724       -2.20918       -1.97613
H          3.79625       -3.46321       -1.82845
H          5.29803       -1.98708        0.38271
H          3.11683       -4.08978        0.76083
H          2.95425       -2.36845        1.11459
H          4.09061       -3.35166        2.03182
H          5.27308       -4.92000       -0.47338
H          6.15977       -4.28526        0.91449
H          6.58708       -3.77034       -0.71508
H         -1.26389        2.48315       -1.60839
H         -0.03666        3.73936       -1.85323
H          0.36066        3.69372        0.67860
H         -2.50163        4.27325       -0.21994
H         -1.14396        5.38967       -0.36897
H         -1.72837        4.92124        1.22682
H         -2.07776        1.86310        0.63077
H         -1.36571        2.57852        2.08203
H         -0.44940        1.41285        1.12894
H          2.23996       -4.51277       -1.29299
H         -0.00483       -8.35389       -1.76318
H          1.60736       -6.13237        0.53845
H          3.91922       -6.38579        1.37050
H          4.72056       -9.21192       -1.73353
H          2.39958       -8.98287       -2.54131
H         -2.57506       -8.27016       -2.17624
H         -4.03348      -12.41878       -2.73524
H         -5.48677      -12.85207       -3.67225
H         -6.81658      -12.87924       -1.55509
H         -4.32690      -14.64742       -1.49591
H         -5.79367      -14.97421       -2.42228
H         -5.84344      -14.98089       -0.65953
H         -4.11216      -12.40940       -0.21852
H         -5.60776      -12.82070        0.62752
H         -5.46996      -11.28562       -0.22816
H         -7.50511      -11.03828       -3.31087
H         -7.75763       -5.40528       -3.39968
H         -6.08459       -4.81048       -3.46923
H         -6.00829       -5.04510       -0.92315
H         -8.13596       -3.19480       -2.09002
H         -6.40201       -2.86213       -2.01684
H         -7.34146       -2.98332       -0.52953
H         -8.18386       -5.22074        0.26519
H         -9.00319       -5.50816       -1.27402
H         -7.84297       -6.68195       -0.66010
