162
d2a1.out	Energy:   -9939.9952724
C         -8.77404       11.07421      -12.50045
S         -9.20680        9.52333      -13.13486
C         -8.39295        8.76557      -11.83282
C         -8.18489        7.45233      -11.33670
S         -8.54155        5.83735      -11.76602
C         -8.03936       11.01188      -11.35544
C         -7.79613        9.68192      -10.96112
C         -7.17136        8.94852       -9.86072
C         -6.48577        9.38245       -8.78585
C         -6.04407       10.74139       -8.52321
C         -6.10102       11.25433       -7.22562
C         -5.67570       12.53888       -6.95297
C         -5.15708       13.31999       -7.97763
C         -4.70413       14.72650       -7.71759
F         -4.55210       15.00500       -6.41564
F         -3.52802       15.00560       -8.30700
F         -5.58003       15.63475       -8.19653
C         -5.06243       12.81480       -9.26959
C         -5.50305       11.53504       -9.53723
C         -7.47469        7.54329      -10.13590
C         -7.21844        6.29780       -9.56375
C         -7.72917        5.25793      -10.31516
C         -7.65511        3.85557      -10.04357
C         -8.16470        2.90061      -10.91577
C         -8.09027        1.53174      -10.68693
C         -7.04729        3.35196       -8.86104
N         -6.49485        4.04093       -7.86361
S         -5.94850        3.01648       -6.74854
N         -6.38234        1.64733       -7.47181
C         -6.97846        1.93463       -8.62480
C         -7.49652        0.99314       -9.55110
C         -7.38408       -0.40990       -9.29955
S         -6.67969       -0.97736       -7.79909
C         -6.89655       -2.59808       -8.30532
C         -6.56947       -3.89603       -7.85216
S         -5.84992       -4.63780       -6.49107
C         -7.76289       -1.45311      -10.12713
C         -7.50275       -2.70315       -9.56905
C         -7.58211       -4.11706       -9.94226
C         -8.08533       -4.70510      -11.04394
C         -8.83826       -4.05179      -12.10194
C         -8.61891       -4.40088      -13.43570
C         -9.32343       -3.78837      -14.45317
C        -10.28089       -2.83213      -14.14248
C        -11.06203       -2.13473      -15.21677
F        -10.77511       -2.56321      -16.45270
F        -12.39102       -2.28423      -15.06091
F        -10.84061       -0.80413      -15.21609
C        -10.54082       -2.49972      -12.81712
C         -9.82371       -3.10647      -11.80707
C         -6.94079       -4.82448       -8.83477
C         -6.62828       -6.13600       -8.48420
C         -6.02602       -6.22036       -7.24291
C         -5.54839       -7.38664       -6.56874
C         -5.07242       -7.34290       -5.26276
C         -4.57629       -8.45076       -4.58814
C         -5.50957       -8.66016       -7.19946
N         -5.90234       -8.97771       -8.43188
S         -5.63087      -10.54440       -8.68776
N         -5.00223      -10.90067       -7.25116
C         -4.97728       -9.80180       -6.50343
C         -4.49806       -9.71098       -5.17119
C         -3.95773      -10.85608       -4.50776
S         -3.71701      -12.35471       -5.38347
C         -3.04685      -13.07405       -3.98186
C         -2.41675      -14.28710       -3.61687
S         -1.98055      -15.78412       -4.32525
C         -3.55074      -10.95147       -3.18793
C         -3.05089      -12.21205       -2.87070
C         -2.42644      -12.89430       -1.73665
C         -2.21267      -12.48506       -0.47150
C         -2.70631      -11.26596        0.14541
C         -4.00682      -10.81116       -0.08547
C         -4.46736       -9.65960        0.51872
C         -3.63086       -8.94601        1.37015
C         -4.14055       -7.67590        1.98446
F         -5.39026       -7.80127        2.46506
F         -3.38553       -7.23394        2.99935
F         -4.19135       -6.66861        1.08702
C         -2.34314       -9.39615        1.63086
C         -1.89369      -10.55550        1.03150
C         -2.01084      -14.18703       -2.27743
C         -1.34928      -15.32595       -1.83238
C         -1.23657      -16.29081       -2.82047
C         -0.58898      -17.56162       -2.73181
C          0.05436      -18.01924       -1.58654
C          0.70089      -19.24707       -1.52974
C         -0.55207      -18.43672       -3.84831
N         -1.09337      -18.20661       -5.04135
S         -0.79948      -19.45842       -6.00711
N          0.03098      -20.35364       -4.95857
C          0.11393      -19.70944       -3.79377
C          0.76385      -20.13060       -2.60101
C          1.45059      -21.38183       -2.52199
S          2.36505      -21.82608       -1.08578
C          2.81992      -23.30390       -1.81845
C          3.54592      -24.47127       -1.48202
S          4.46112      -25.09275       -0.17607
C          1.51709      -22.35809       -3.49494
C          2.30333      -23.44458       -3.11528
C          2.70840      -24.74694       -3.64761
C          2.42382      -25.30845       -4.83699
C          1.73020      -24.64551       -5.93294
C          2.08499      -23.35376       -6.32755
C          1.40385      -22.71614       -7.34312
C          0.35573      -23.36852       -7.98295
C         -0.38457      -22.63526       -9.06158
F         -0.93712      -21.48996       -8.60696
F          0.42045      -22.27099      -10.07819
F         -1.38288      -23.34268       -9.60547
C          0.01505      -24.66750       -7.63080
C          0.70918      -25.30278       -6.61956
C          3.47481      -25.36014       -2.56450
C          4.16739      -26.54453       -2.32542
C          4.75944      -26.56679       -1.07540
C          5.54220      -27.61430       -0.48526
C          5.80770      -28.82182       -1.11074
C          6.57647      -29.82917       -0.51100
C          6.09719      -27.45002        0.81117
N          5.97886      -26.38506        1.59892
S          6.77954      -26.66099        2.96849
N          7.31406      -28.13697        2.63424
C          6.88559      -28.48767        1.41945
C          7.12186      -29.69149        0.73891
H         -9.09794       11.95071      -13.02544
H         -7.70878       11.88535      -10.82370
H         -6.23227        8.65302       -8.02657
H         -6.50143       10.64324       -6.43075
H         -5.73524       12.93437       -5.95070
H         -4.63799       13.42394      -10.05339
H         -5.40375       11.12807      -10.53133
H         -6.69136        6.12343       -8.64449
H         -8.64046        3.24090      -11.82434
H         -8.51133        0.86925      -11.42672
H         -8.18606       -1.29712      -11.10203
H         -7.91630       -5.76691      -11.17157
H         -7.87342       -5.14458      -13.67374
H         -9.13731       -4.05089      -15.48316
H        -11.30431       -1.77138      -12.58789
H        -10.03931       -2.87111      -10.77657
H         -6.80904       -7.00926       -9.08274
H         -5.08681       -6.39412       -4.74596
H         -4.22610       -8.31489       -3.57713
H         -3.60867      -10.12811       -2.50065
H         -1.60590      -13.11668        0.16532
H         -4.66229      -11.38454       -0.72200
H         -5.47410       -9.31213        0.34134
H         -1.70488       -8.84438        2.30368
H         -0.89357      -10.90853        1.23349
H         -0.95659      -15.45246       -0.84031
H          0.06112      -17.40055       -0.70340
H          1.18343      -19.53182       -0.60565
H          0.99347      -22.25091       -4.42537
H          2.70521      -26.34071       -5.00183
H          2.90940      -22.85885       -5.83897
H          1.67363      -21.71423       -7.63981
H         -0.78825      -25.17350       -8.14383
H          0.44071      -26.30981       -6.33757
H          4.24002      -27.35667       -3.02528
H          5.41061      -29.00347       -2.09696
H          6.73858      -30.74357       -1.06239
H          7.71246      -30.46499        1.20086
