326
d2a12.out	Energy:  -11744.7753770
C         39.97905       29.81436       -3.34586
S         38.30323       30.01966       -3.72514
C         38.01882       28.37335       -3.35098
C         36.94041       27.44983       -3.39148
S         35.27273       27.42538       -3.75742
C         40.29941       28.55212       -2.94811
C         39.17281       27.70661       -2.93100
C         38.84289       26.30292       -2.68255
C         39.61298       25.27413       -2.28050
C         40.99198       25.34201       -1.82756
C         41.42267       26.35623       -0.96953
C         42.72913       26.39570       -0.52761
C         43.62570       25.41612       -0.93975
C         45.04989       25.49952       -0.47487
F         45.14703       25.78258        0.83628
F         45.74095       24.36799       -0.67135
F         45.73233       26.47256       -1.11310
C         43.21042       24.38967       -1.77800
C         41.89821       24.34883       -2.20432
C         37.42159       26.19480       -3.01560
C         36.42908       25.21170       -3.02515
C         35.19837       25.70225       -3.40725
C         33.94968       24.99830       -3.54053
C         32.77154       25.71376       -3.79682
C         31.58694       25.02912       -3.91660
N         30.32981       25.52959       -4.18478
C         29.96423       26.90938       -4.38507
C         30.04348       27.37389       -5.85178
C         31.48166       27.47147       -6.35445
C         29.22401       26.45966       -6.75893
C         29.40054       24.51919       -4.19323
O         28.20659       24.71530       -4.28830
C         33.88452       23.60227       -3.42912
C         32.68986       22.91994       -3.53042
C         31.51017       23.62387       -3.75279
C         30.13590       23.23532       -3.94663
C         29.53263       22.00753       -3.86577
C         28.22006       21.59601       -4.30202
C         27.23951       22.18454       -5.09430
C         26.08272       21.48972       -5.37924
C         30.10635       20.80889       -3.17391
O         31.17612       20.66712       -2.61636
N         29.13896       19.83580       -3.18305
C         29.35108       18.54327       -2.58155
C         30.13236       17.58589       -3.49493
C         30.46425       16.30982       -2.72693
C         29.35062       17.26027       -4.76442
C         28.01995       20.26341       -3.86744
C         26.86303       19.57261       -4.13462
C         25.85851       20.19499       -4.88923
C         24.62209       19.50538       -5.14766
S         24.39112       17.85992       -4.57194
C         22.80415       17.84008       -5.20561
C         21.67468       16.98633       -5.20110
S         21.22507       15.43898       -4.63191
C         23.50319       19.97262       -5.80421
C         22.46938       19.03367       -5.85932
C         21.08013       18.94954       -6.31332
C         20.31968       19.83734       -6.98172
C         20.75864       21.09050       -7.57180
C         21.96977       21.18316       -8.26128
C         22.36483       22.37551       -8.83249
C         21.55037       23.49655       -8.71917
C         21.98915       24.77884       -9.36370
F         23.29491       25.03026       -9.17053
F         21.81133       24.75761      -10.70141
F         21.32330       25.85229       -8.91650
C         20.33015       23.41624       -8.06063
C         19.93651       22.21713       -7.50162
C         20.61885       17.64561       -5.83856
C         19.44581       16.88992       -5.85890
C         19.58900       15.66492       -5.24026
C         18.59590       14.64783       -5.01746
C         18.96248       13.42791       -4.43084
C         17.98777       12.49903       -4.15989
N         18.12985       11.23859       -3.61790
C         19.35131       10.61437       -3.17491
C         19.58608       10.78023       -1.66559
C         20.79203        9.94472       -1.24597
C         19.78980       12.24467       -1.28794
C         16.91784       10.60072       -3.54341
O         16.78929        9.48309       -3.08727
C         17.25175       14.85820       -5.35602
C         16.27636       13.92270       -5.08000
C         16.61973       12.73558       -4.44064
C         15.88009       11.56222       -4.04238
C         14.52785       11.34466       -3.98850
C         13.78452       10.12382       -3.78256
C         14.12026        8.77340       -3.75757
C         13.13233        7.82477       -3.58310
C         13.49337       12.43177       -4.01977
O         13.62736       13.63169       -4.14664
N         12.27768       11.83673       -3.80055
C         11.04519       12.57184       -3.68729
C         10.53724       12.65544       -2.23966
C         11.55090       13.37907       -1.35854
C          9.18941       13.37021       -2.21707
C         12.41573       10.47039       -3.68119
C         11.42784        9.53255       -3.51445
C         11.78291        8.17742       -3.44142
C         10.76398        7.18903       -3.20308
S          9.10522        7.70508       -2.92928
C          8.62232        6.08553       -2.69244
C          7.42819        5.37119       -2.43775
S          5.77152        5.68734       -2.17128
C         10.88971        5.81873       -3.10960
C          9.68476        5.17855       -2.80136
C          9.16378        3.82281       -2.60645
C          9.78318        2.62812       -2.64413
C         11.21198        2.38660       -2.75795
C         12.13704        3.13333       -2.02580
C         13.48968        2.87926       -2.13302
C         13.93492        1.87155       -2.98026
C         15.40466        1.58292       -3.07373
F         16.15790        2.69030       -2.97862
F         15.82163        0.76357       -2.08572
F         15.75028        0.98399       -4.22299
C         13.02699        1.09989       -3.69483
C         11.67581        1.35258       -3.57394
C          7.72751        4.00667       -2.39281
C          6.60509        3.22055       -2.11968
C          5.45568        3.96841       -1.97294
C          4.11745        3.53282       -1.66836
C          3.04931        4.42595       -1.83204
C          1.78471        4.02247       -1.48241
N          0.60061        4.72068       -1.59363
C          0.43003        6.07413       -2.05879
C          0.40061        7.09388       -0.90972
C          1.73555        7.14683       -0.17218
C          0.03834        8.46922       -1.46265
C         -0.45889        3.94985       -1.18817
O         -1.60398        4.35219       -1.18372
C          3.85658        2.24176       -1.18986
C          2.58346        1.84210       -0.83519
C          1.52437        2.73757       -0.94688
C          0.10391        2.64221       -0.71446
C         -0.62931        1.67685       -0.07688
C         -2.05899        1.50571        0.00532
C         -3.13647        2.03693       -0.69571
C         -4.41875        1.64324       -0.37272
C         -0.05696        0.65415        0.85971
O          1.10037        0.42015        1.14061
N         -1.11814        0.03436        1.47077
C         -0.96435       -1.02319        2.43538
C         -1.25033       -2.41293        1.84528
C         -0.27780       -2.72397        0.71158
C         -1.14927       -3.46090        2.94967
C         -2.31558        0.50625        0.97410
C         -3.59064        0.12784        1.31793
C         -4.67342        0.72092        0.65213
C         -6.02258        0.39863        1.03838
S         -6.32349       -0.47488        2.53412
C         -8.00997       -0.35423        2.28668
C         -9.20527       -0.65172        2.98668
S         -9.69890       -1.35601        4.46382
C         -7.19824        0.72791        0.39825
C         -8.33434        0.29039        1.08533
C         -9.79096        0.39695        0.98516
C        -10.56802        0.92698        0.02161
C        -10.13644        1.40656       -1.28027
C         -9.18986        0.70819       -2.03314
C         -8.80461        1.16398       -3.27734
C         -9.36233        2.33142       -3.78576
C         -8.95153        2.80242       -5.15003
F         -7.63912        2.63204       -5.38111
F         -9.59040        2.12897       -6.12971
F         -9.21086        4.10071       -5.36104
C        -10.32460        3.02476       -3.06262
C        -10.71305        2.55648       -1.82380
C        -10.28568       -0.18175        2.23346
C        -11.51275       -0.39848        2.86143
C        -11.38282       -1.01720        4.08852
C        -12.41334       -1.35842        5.03437
C        -13.75898       -1.06599        4.76058
C        -14.70823       -1.39000        5.69945
N        -16.06820       -1.16381        5.64324
C        -16.78121       -0.53445        4.56315
C        -16.59991        0.99160        4.54029
C        -17.32958        1.56894        3.33074
C        -17.12086        1.61198        5.83315
C        -16.68031       -1.58547        6.79625
O        -17.88268       -1.55533        6.95577
C        -12.09093       -1.96551        6.25479
C        -13.04995       -2.29691        7.18965
C        -14.38790       -2.02481        6.92337
C        -15.61005       -2.15010        7.68420
C        -15.83172       -2.68022        8.92549
C        -16.96414       -2.52953        9.81761
C        -18.09816       -1.72738        9.79413
C        -18.96297       -1.74636       10.87685
C        -14.90513       -3.62346        9.63206
O        -13.84320       -4.08877        9.26834
N        -15.50515       -3.97327       10.81270
C        -14.90599       -4.91889       11.72026
C        -15.20734       -6.37515       11.33352
C        -14.40439       -7.31531       12.22775
C        -16.69898       -6.68083       11.43293
C        -16.71214       -3.31832       10.96372
C        -17.57515       -3.33874       12.04045
C        -18.71267       -2.54578       11.98062
H         40.63332       30.65764       -3.44374
H         41.30100       28.25420       -2.69723
H         39.17601       24.28333       -2.29643
H         40.71580       27.09657       -0.62893
H         43.05859       27.17659        0.14109
H         43.90960       23.62684       -2.08410
H         41.57134       23.55059       -2.85364
H         36.59399       24.18454       -2.75725
H         32.80935       26.78730       -3.89154
H         30.59974       27.53812       -3.75624
H         28.92721       27.00168       -4.04667
H         29.60108       28.37627       -5.87605
H         31.96510       26.49734       -6.33660
H         32.06225       28.16226       -5.74668
H         31.49079       27.83583       -7.37923
H         29.68469       25.47562       -6.82677
H         29.16607       26.87695       -7.76144
H         28.21518       26.33854       -6.37308
H         34.78888       23.04110       -3.25866
H         32.67309       21.85068       -3.41477
H         27.36370       23.18353       -5.47249
H         25.33237       21.96484       -5.99010
H         28.38256       18.11465       -2.31638
H         29.93031       18.70792       -1.66742
H         31.06665       18.08531       -3.77188
H         29.55158       15.80544       -2.41548
H         31.05352       16.53590       -1.84167
H         31.03474       15.62914       -3.35387
H         29.11191       18.16398       -5.32051
H         28.42211       16.74760       -4.52029
H         29.93782       16.61019       -5.40898
H         26.71600       18.56507       -3.77744
H         23.43508       20.96752       -6.20223
H         19.26618       19.61296       -7.09393
H         22.58519       20.30395       -8.37156
H         23.30136       22.44447       -9.36517
H         19.69709       24.28729       -7.99018
H         18.98976       22.15222       -6.98679
H         18.52437       17.22000       -6.30148
H         19.99832       13.23847       -4.19603
H         20.18734       11.03114       -3.74079
H         19.26385        9.54726       -3.40160
H         18.69660       10.40139       -1.15160
H         20.63186        8.89469       -1.47771
H         20.96167       10.03750       -0.17624
H         21.68720       10.28141       -1.76542
H         18.93357       12.84797       -1.58076
H         20.67868       12.64467       -1.77242
H         19.91870       12.33886       -0.21218
H         16.96181       15.78180       -5.82971
H         15.25349       14.12974       -5.33862
H         15.14568        8.46208       -3.84851
H         13.41539        6.78500       -3.54759
H         10.28995       12.10096       -4.32531
H         11.24954       13.57913       -4.06112
H         10.40471       11.63792       -1.85574
H         12.49796       12.84416       -1.33828
H         11.18092       13.45486       -0.33870
H         11.73563       14.38161       -1.73757
H          9.29339       14.38502       -2.59450
H          8.80496       13.41960       -1.20139
H          8.46210       12.84569       -2.83314
H         10.39082        9.82207       -3.44117
H         11.82091        5.30967       -3.27346
H          9.16366        1.74080       -2.60067
H         11.78495        3.89446       -1.34709
H         14.20234        3.45865       -1.56576
H         13.38127        0.30960       -4.33866
H         10.96768        0.75675       -4.12998
H          6.61769        2.14865       -2.04603
H          3.23346        5.41175       -2.22959
H         -0.52820        6.11083       -2.58613
H          1.23218        6.31161       -2.76101
H         -0.37931        6.77681       -0.20956
H          2.53040        7.47111       -0.84136
H          1.99886        6.17253        0.23291
H          1.67852        7.85261        0.65326
H         -0.93208        8.44372       -1.95215
H          0.78275        8.79615       -2.18614
H         -0.00224        9.20030       -0.65919
H          4.67280        1.54756       -1.07004
H          2.42231        0.85056       -0.45059
H         -2.98312        2.76801       -1.46916
H         -5.24478        2.08272       -0.90803
H         -1.63035       -0.82902        3.28203
H          0.07249       -0.97925        2.78097
H         -2.26930       -2.41923        1.44257
H          0.74798       -2.68181        1.07065
H         -0.38475       -2.00579       -0.09869
H         -0.46630       -3.71782        0.31221
H         -1.85482       -3.24949        3.75027
H         -0.14570       -3.47223        3.36885
H         -1.36702       -4.44978        2.55397
H         -3.77009       -0.60885        2.08617
H         -7.22422        1.27367       -0.52621
H        -11.62807        1.01838        0.22354
H         -8.78037       -0.21218       -1.64710
H         -8.07300        0.62166       -3.85701
H        -10.76254        3.92252       -3.47098
H        -11.45870        3.09478       -1.25818
H        -12.45869       -0.10663        2.44400
H        -14.04146       -0.59364        3.83464
H        -17.83873       -0.77288        4.70974
H        -16.44753       -0.97004        3.61593
H        -15.53094        1.21698        4.45267
H        -18.39500        1.36180        3.39928
H        -16.95434        1.13489        2.40620
H        -17.19214        2.64642        3.28425
H        -18.17037        1.36473        5.97523
H        -17.01915        2.69433        5.80233
H        -16.56422        1.24247        6.69186
H        -11.05489       -2.18341        6.46881
H        -12.75999       -2.77963        8.10592
H        -18.31963       -1.11078        8.94140
H        -19.84854       -1.12977       10.85590
H        -15.25733       -4.71048       12.73300
H        -13.82371       -4.76075       11.67899
H        -14.88531       -6.51210       10.29607
H        -14.68404       -7.18010       13.27094
H        -13.33873       -7.12418       12.12807
H        -14.59405       -8.35009       11.95399
H        -17.04353       -6.57123       12.45961
H        -16.89395       -7.70295       11.11680
H        -17.27891       -6.01332       10.79967
H        -17.37811       -3.94746       12.90876
H        -19.40531       -2.55154       12.80914
