162
d2a2.out	Energy:  -17957.2049591
C        -11.18334       11.27310       -8.34150
S         -9.98390       10.38257       -7.46792
C        -10.56731        8.92600       -8.15302
C        -10.22496        7.54871       -8.15118
S         -9.08633        6.49790       -7.42687
C        -11.99042       10.49303       -9.11318
C        -11.65774        9.12910       -9.00494
C        -12.05192        7.84354       -9.58053
C        -13.02501        7.53629      -10.45889
C        -14.06165        8.42710      -10.95390
C        -14.42983        8.38844      -12.30006
C        -15.41470        9.22315      -12.78870
C        -16.06797       10.09050      -11.92305
C        -17.12872       11.02528      -12.42494
F        -17.55610       10.73281      -13.66070
F        -18.21875       11.03663      -11.63711
F        -16.69441       12.30231      -12.46954
C        -15.73843       10.11850      -10.57246
C        -14.74211        9.29239      -10.09456
C        -11.09508        6.88507       -9.02424
C        -10.83456        5.52003       -9.09974
C         -9.77033        5.13878       -8.29790
C         -9.21803        3.82879       -8.14181
C         -9.70526        2.71455       -8.81480
C         -9.16117        1.44338       -8.67288
C         -8.07824        1.17019       -7.84524
C         -7.54776        2.27852       -7.12680
C         -8.11298        3.59763       -7.27370
N         -7.51566        4.52792       -6.54410
Se        -6.20831        3.80705       -5.62817
N         -6.52529        2.21495       -6.28709
C         -7.50981       -0.13457       -7.70832
S         -6.14576       -0.40927       -6.64466
C         -6.13306       -2.06752       -7.07556
C         -5.35334       -3.21987       -6.82839
S         -3.99030       -3.68350       -5.90589
C         -7.91456       -1.29617       -8.34641
C         -7.15313       -2.40318       -7.98435
C         -7.03847       -3.82097       -8.32936
C         -7.77515       -4.58249       -9.15961
C         -9.00052       -4.17996       -9.83141
C         -9.21198       -4.52437      -11.16732
C        -10.36083       -4.13239      -11.82570
C        -11.32925       -3.41130      -11.14032
C        -12.57972       -2.94352      -11.82394
F        -12.69821       -3.38008      -13.08407
F        -13.69446       -3.33279      -11.17825
F        -12.64355       -1.59616      -11.88341
C        -11.15584       -3.09806       -9.79634
C         -9.99916       -3.48089       -9.14954
C         -5.86566       -4.28147       -7.58937
C         -5.15339       -5.46428       -7.42051
C         -4.09438       -5.32514       -6.54179
C         -3.14680       -6.31369       -6.13361
C         -2.13897       -6.03166       -5.21890
C         -1.20424       -6.96663       -4.79400
C         -1.19406       -8.27852       -5.25344
C         -2.20470       -8.61683       -6.19802
C         -3.18074       -7.64746       -6.64129
N         -4.04977       -8.12630       -7.52111
Se        -3.69731       -9.81247       -7.84472
N         -2.33979       -9.81672       -6.74101
C         -0.24506       -9.25526       -4.81883
S         -0.31267      -10.89420       -5.43304
C          1.03425      -11.32002       -4.46636
C          1.85802      -12.44493       -4.24416
S          1.98577      -14.07001       -4.75836
C          0.78604       -9.08296       -3.90779
C          1.50971      -10.25094       -3.68461
C          2.67712      -10.70164       -2.92413
C          3.48078      -10.04468       -2.06678
C          3.29480       -8.69663       -1.55637
C          2.04187       -8.24472       -1.13790
C          1.88280       -6.96603       -0.64225
C          2.98067       -6.11815       -0.56405
C          2.82387       -4.73174       -0.01227
F          1.57742       -4.25251       -0.14453
F          3.10845       -4.67478        1.30521
F          3.63795       -3.84259       -0.60453
C          4.24097       -6.56101       -0.94833
C          4.39438       -7.84478       -1.42984
C          2.86364      -12.09328       -3.33192
C          3.72763      -13.14617       -3.04584
C          3.40318      -14.30041       -3.73538
C          4.05539      -15.57162       -3.69992
C          3.64398      -16.62685       -4.50499
C          4.24352      -17.87939       -4.49423
C          5.31440      -18.19067       -3.66511
C          5.77355      -17.14243       -2.81763
C          5.15776      -15.83447       -2.83225
N          5.70723      -14.97361       -1.98645
Se         7.02217      -15.74904       -1.12487
N          6.77942      -17.26391       -1.96532
C          5.93129      -19.48057       -3.63848
S          7.19563      -19.84514       -2.48243
C          7.30797      -21.43966       -3.09394
C          8.09880      -22.59485       -2.88860
S          9.36141      -23.13219       -1.86576
C          5.63891      -20.56654       -4.44847
C          6.40243      -21.68914       -4.14012
C          6.60638      -23.05381       -4.63024
C          5.99756      -23.72947       -5.62285
C          4.83900      -23.29403       -6.38550
C          4.78709      -23.51720       -7.76257
C          3.69779      -23.10827       -8.50585
C          2.62881      -22.49180       -7.86951
C          1.43466      -22.01692       -8.64348
F          1.45124      -22.38336       -9.93159
F          0.27726      -22.47505       -8.13166
F          1.33251      -20.67159       -8.63419
C          2.64598      -22.29573       -6.49269
C          3.74361      -22.69546       -5.75879
C          7.70581      -23.56996       -3.81680
C          8.43268      -24.74957       -3.69019
C          9.37769      -24.68383       -2.67981
C         10.30124      -25.70557       -2.27756
C         10.37500      -26.94198       -2.89557
C         11.28277      -27.93386       -2.49545
C         12.15984      -27.74493       -1.46263
C         12.13482      -26.50879       -0.79143
C         11.20446      -25.48170       -1.19633
N         11.27978      -24.36638       -0.48678
Se        12.52635      -24.54150        0.73382
N         12.91680      -26.16833        0.22840
H        -11.21501       12.33848       -8.22801
H        -12.77130       10.89270       -9.73399
H        -13.04710        6.52865      -10.85492
H        -13.92192        7.71098      -12.96982
H        -15.68382        9.19952      -13.83338
H        -16.26829       10.78183       -9.90562
H        -14.50111        9.29076       -9.04305
H        -11.38679        4.83036       -9.71109
H        -10.54322        2.83052       -9.48358
H         -9.60569        0.64006       -9.23920
H         -8.71986       -1.32023       -9.05632
H         -7.42800       -5.58657       -9.36788
H         -8.45580       -5.08358      -11.69725
H        -10.50987       -4.38486      -12.86416
H        -11.92791       -2.55864       -9.26828
H         -9.86865       -3.26015       -8.10163
H         -5.36693       -6.39877       -7.90335
H         -2.08152       -5.03137       -4.81434
H         -0.46149       -6.65223       -4.07798
H          1.00038       -8.13786       -3.44490
H          4.37114      -10.55651       -1.72331
H          1.19802       -8.91582       -1.17629
H          0.91234       -6.62169       -0.31821
H          5.08973       -5.89892       -0.86991
H          5.37121       -8.19084       -1.73229
H          4.56418      -13.10703       -2.37433
H          2.81213      -16.46500       -5.17528
H          3.85052      -18.63482       -5.15601
H          4.91475      -20.52320       -5.24034
H          6.40723      -24.69162       -5.90390
H          5.62001      -23.99698       -8.25418
H          3.67116      -23.26935       -9.57249
H          1.79813      -21.83624       -6.00696
H          3.75073      -22.57096       -4.68722
H          8.28616      -25.61947       -4.30359
H          9.71415      -27.16165       -3.71894
H         11.28075      -28.87347       -3.02791
H         12.85937      -28.50337       -1.15214
