158
d2a3.out	Energy:  -18021.3266029
C         31.10681        6.48021       -4.74500
S         29.94288        7.44847       -3.90735
C         28.75743        6.23901       -4.15973
C         27.37271        6.05321       -3.91456
S         26.07170        6.87287       -3.16794
C         30.61292        5.29051       -5.18819
C         29.25702        5.12717       -4.84563
C         28.16718        4.17428       -5.05632
C         28.15653        2.97875       -5.67545
C         29.31312        2.25029       -6.17097
C         30.48127        2.15084       -5.41323
C         31.56901        1.44181       -5.88272
C         31.50178        0.82654       -7.12605
C         32.66711        0.04171       -7.65298
F         33.82183        0.33032       -7.03513
F         32.48868       -1.28790       -7.51290
F         32.87565        0.24897       -8.96485
C         30.33750        0.89347       -7.88320
C         29.24943        1.59086       -7.40053
C         26.99395        4.82351       -4.46815
C         25.64274        4.54761       -4.27895
C         24.98968        5.55881       -3.59273
C         23.61199        5.62478       -3.22348
C         22.68184        4.62663       -3.51669
N         21.39971        4.63871       -3.19259
C         20.87076        5.65719       -2.52784
C         21.69362        6.76309       -2.15868
C         23.08732        6.74037       -2.51359
N         23.76471        7.81080       -2.12409
Se        22.68460        8.90891       -1.28678
N         21.30702        7.84372       -1.50170
C         19.48667        5.60943       -2.19829
S         18.71045        6.92248       -1.34682
C         17.22993        6.06395       -1.38453
C         15.91924        6.21391       -0.88676
S         14.99731        7.35718       -0.00979
C         18.61688        4.56899       -2.49041
C         17.32467        4.82099       -2.04643
C         16.02398        4.15171       -1.98096
C         15.61931        2.95809       -2.45591
C         16.37138        2.05834       -3.31333
C         16.28939        0.67899       -3.11117
C         16.99108       -0.19729       -3.91453
C         17.76680        0.29999       -4.95337
C         18.54891       -0.61910       -5.84502
F         18.31759       -1.91748       -5.60991
F         18.28053       -0.41562       -7.14867
F         19.87908       -0.44274       -5.71348
C         17.83190        1.66841       -5.19226
C         17.13773        2.53868       -4.37756
C         15.18102        5.06410       -1.21105
C         13.87167        5.11464       -0.74440
C         13.59881        6.28918       -0.06528
C         12.37422        6.67877        0.55418
C         12.21368        7.92309        1.16507
N         11.12481        8.36823        1.76455
C         10.03726        7.61179        1.84036
C         10.04085        6.30738        1.25995
C         11.22985        5.83050        0.59896
N         11.11178        4.60842        0.09631
Se         9.50105        3.99414        0.42644
N          9.02663        5.46016        1.26198
C          8.89447        8.13820        2.50329
S          7.42852        7.20574        2.68389
C          6.70468        8.51431        3.51636
C          5.49235        8.78850        4.18076
S          4.00440        8.01260        4.51846
C          8.79914        9.40420        3.06494
C          7.55161        9.63857        3.62723
C          6.85265       10.68290        4.37883
C          7.24931       11.91858        4.73863
C          8.46843       12.59615        4.32927
C          8.92797       12.53199        3.01278
C         10.07767       13.19565        2.63316
C         10.78565       13.93321        3.57282
C         12.02702       14.68021        3.18091
F         12.55987       14.25569        2.02706
F         11.79242       15.99987        3.02263
F         12.99705       14.58857        4.10668
C         10.32858       14.03037        4.88228
C          9.17237       13.37453        5.25113
C          5.56564       10.08224        4.72641
C          4.40845       10.43806        5.40827
C          3.45666        9.42803        5.39630
C          2.16197        9.43601        5.99505
C          1.63095       10.53008        6.68106
N          0.43983       10.58570        7.25082
C         -0.38667        9.54805        7.21578
C          0.01093        8.35069        6.54923
C          1.30728        8.30033        5.92804
N          1.58084        7.14843        5.33340
Se         0.21912        6.05969        5.52195
N         -0.70318        7.24388        6.43062
C         -1.65592        9.67359        7.84716
S         -2.81340        8.36529        7.84455
C         -3.90784        9.33801        8.73084
C         -5.18091        9.20731        9.32724
S         -6.41864        8.03592        9.48146
C         -2.12119       10.80131        8.50759
C         -3.40906       10.63007        8.99928
C         -4.40062       11.36539        9.78673
C         -4.37574       12.61924       10.27777
C         -3.37224       13.63677       10.01342
C         -2.85301       13.82744        8.73174
C         -1.90825       14.80494        8.49129
C         -1.46921       15.60652        9.53703
C         -0.45448       16.68545        9.29494
F          0.25759       16.49987        8.17415
F         -1.02662       17.90159        9.17877
F          0.43471       16.79146       10.29732
C         -1.99822       15.45212       10.81346
C         -2.95022       14.48053       11.04361
C         -5.48746       10.40897        9.98742
C         -6.72939       10.37080       10.61192
C         -7.36914        9.15374       10.43974
C         -8.64901        8.75911       10.94455
C         -9.46297        9.58489       11.71123
N        -10.65969        9.25473       12.20062
C        -11.16744        8.07435       11.97844
C        -10.47184        7.11100       11.21634
C         -9.17929        7.46281       10.68569
N         -8.59553        6.50276        9.98343
Se        -9.64509        5.09934        9.95228
N        -10.87324        5.88014       10.91809
H         32.10264        6.86002       -4.85889
H         31.20104        4.58276       -5.74320
H         27.19806        2.50128       -5.83624
H         30.51969        2.61144       -4.43837
H         32.46855        1.36554       -5.29113
H         30.29233        0.39964       -8.84195
H         28.34436        1.64580       -7.98644
H         25.14620        3.65873       -4.62214
H         22.98896        3.74182       -4.05607
H         18.96581        3.68508       -2.99020
H         14.63312        2.61516       -2.16813
H         15.68475        0.29614       -2.30274
H         16.93476       -1.26132       -3.74372
H         18.42198        2.04113       -6.01572
H         17.16073        3.59788       -4.57852
H         13.12714        4.35116       -0.87030
H         13.04211        8.62061        1.16631
H          9.63544       10.07728        3.04720
H          6.60860       12.47628        5.41041
H          8.35998       11.98121        2.27996
H         10.42788       13.14162        1.61391
H         10.87961       14.61819        5.60044
H          8.81626       13.44651        6.26774
H          4.25352       11.38052        5.90028
H          2.20734       11.43904        6.77964
H         -1.50337       11.67363        8.60732
H         -5.17374       12.91247       10.94853
H         -3.21701       13.22135        7.91741
H         -1.50890       14.94549        7.49867
H         -1.66132       16.09184       11.61488
H         -3.35984       14.35546       12.03464
H         -7.15673       11.18242       11.17119
H         -9.14718       10.58747       11.95997
H        -12.13869        7.85803       12.39791
