206
d2a5.out	Energy:  -10999.3406352
C         26.10969        0.74647      -13.43757
S         25.62550        0.38920      -11.81309
C         24.88218        1.92846      -11.69493
C         24.10078        2.64460      -10.75730
S         23.45833        2.45804       -9.17261
C         25.72704        1.98312      -13.86219
C         25.02947        2.68826      -12.86369
C         24.32471        3.95593      -12.68726
C         24.14679        4.99896      -13.52100
C         24.76338        5.19928      -14.82015
C         24.01668        5.74945      -15.86464
C         24.57883        5.95207      -17.10861
C         25.91359        5.62970      -17.31645
C         26.55677        5.82288      -18.65703
F         25.77883        6.46854      -19.53687
F         27.70406        6.52370      -18.58002
F         26.88454        4.64878      -19.23593
C         26.68333        5.11521      -16.27845
C         26.11060        4.90349      -15.04155
C         23.73983        3.86475      -11.34764
C         22.95310        4.64946      -10.51655
C         22.69796        4.03367       -9.29722
C         21.90254        4.52414       -8.23179
C         21.26111        5.77818       -8.23768
N         21.36286        6.69159       -9.20166
S         20.52319        8.01634       -8.87943
N         19.94741        7.43382       -7.40198
C         20.42026        6.18157       -7.13818
C         21.69459        3.73431       -7.07022
N         22.33349        2.55785       -7.01752
C         22.16754        1.75297       -5.99494
C         22.91945        0.46601       -5.99137
C         21.29335        2.12729       -4.94923
C         21.03666        1.23185       -3.78257
N         20.67414        3.28833       -4.96942
C         20.84908        4.12980       -5.99575
C         20.16452        5.39586       -6.01962
C         19.26608        5.77857       -4.97023
S         18.05362        7.05358       -5.19942
C         17.43757        6.79558       -3.62362
C         16.37691        7.25926       -2.83281
S         15.10474        8.40922       -2.90351
C         19.15097        5.21919       -3.71126
C         18.13960        5.78551       -2.93902
C         17.50481        5.58988       -1.63595
C         17.79454        4.73171       -0.63851
C         18.95176        3.85937       -0.54595
C         20.22482        4.29449       -0.92141
C         21.31809        3.45975       -0.81140
C         21.15118        2.16937       -0.32333
C         22.33314        1.25803       -0.18352
F         22.88007        1.31229        1.04799
F         22.02255       -0.03331       -0.39291
F         23.32560        1.54660       -1.04260
C         19.89699        1.72771        0.08278
C         18.81128        2.57227       -0.02017
C         16.37724        6.52382       -1.63015
C         15.34499        6.88677       -0.78334
C         14.54319        7.89467       -1.31673
C         13.39237        8.49551       -0.75486
C         12.74118        9.54860       -1.43617
N         13.13268       10.01017       -2.61918
S         12.18739       11.18089       -3.17610
N         11.17615       11.15690       -1.80705
C         11.57357       10.20327       -0.91425
C         12.78491        8.08372        0.47085
N         13.29550        7.06094        1.17426
C         12.70626        6.66417        2.28187
C         13.32859        5.52181        3.01743
C         11.53038        7.29032        2.74663
C         10.81498        6.85481        3.98081
N         11.02726        8.30387        2.07459
C         11.61470        8.73276        0.95727
C         11.00272        9.84825        0.29733
C          9.86696       10.47750        0.89134
S          9.01686        9.68882        2.20679
C          7.85753       10.96435        2.23364
C          6.74178       11.36862        2.99070
S          5.77204       10.79344        4.28409
C          9.28842       11.69103        0.55287
C          8.13856       11.96524        1.28390
C          7.15791       13.04085        1.40614
C          7.03753       14.17472        0.69098
C          7.82037       14.49070       -0.49550
C          7.97295       13.54404       -1.51282
C          8.74062       13.82140       -2.62415
C          9.37353       15.05635       -2.73284
C         10.24534       15.29763       -3.92797
F         11.23166       14.37538       -4.01254
F          9.56789       15.20914       -5.08768
F         10.84572       16.49253       -3.92638
C          9.20023       16.02306       -1.75207
C          8.41554       15.74272       -0.64981
C          6.31081       12.62873        2.52318
C          5.20783       13.11064        3.20082
C          4.77215       12.24270        4.20108
C          3.68901       12.40991        5.09504
C          3.41751       11.43235        6.07544
N          4.11822       10.31174        6.21283
S          3.56163        9.37889        7.39190
N          2.31800       10.45556        7.80539
C          2.32849       11.55952        7.00471
C          2.80442       13.53367        5.08749
N          2.95653       14.48333        4.15067
C          2.19246       15.55141        4.15471
C          2.38381       16.54628        3.05776
C          1.23610       15.73692        5.17498
C          0.42930       16.98717        5.29728
N          1.02836       14.79116        6.06390
C          1.75233       13.66589        6.04163
C          1.46501       12.64420        7.01735
C          0.36131       12.77625        7.92094
S          0.26665       11.86155        9.43538
C         -1.22340       12.61094        9.83391
C         -2.13327       12.62350       10.90082
S         -2.37255       11.86803       12.43161
C         -0.73750       13.60366        7.78142
C         -1.63903       13.51462        8.83694
C         -2.88159       14.14638        9.27686
C         -3.63213       15.09864        8.69020
C         -3.45163       15.63978        7.35346
C         -3.17114       14.81002        6.26542
C         -3.00659       15.33575        5.00050
C         -3.11983       16.70740        4.80589
C         -2.95567       17.27132        3.42686
F         -2.59858       18.56614        3.42552
F         -2.01620       16.62684        2.70891
F         -4.08926       17.19573        2.70168
C         -3.42939       17.54561        5.87024
C         -3.60277       17.01030        7.13022
C         -3.14023       13.56444       10.59396
C         -4.09126       13.66863       11.59087
C         -3.82940       12.82030       12.66673
C         -4.57980       12.67420       13.85108
C         -5.75985       13.40077       14.13962
N         -6.33102       14.30690       13.35936
S         -7.66327       14.93321       14.01227
N         -7.54935       13.99396       15.42994
C         -6.45095       13.17809       15.38873
C         -4.15106       11.74865       14.84599
N         -3.03840       11.04842       14.60257
C         -2.60133       10.18205       15.49168
C         -1.35354        9.43130       15.16485
C         -3.30849        9.99039       16.70079
C         -2.84365        9.01352       17.73066
N         -4.40752       10.66745       16.96609
C         -4.85693       11.55331       16.06550
C         -6.03285       12.29033       16.33394
H         26.65578        0.00421      -13.98502
H         25.92925        2.34845      -14.85261
H         23.45847        5.77387      -13.20693
H         22.97964        6.00041      -15.69914
H         23.99112        6.36322      -17.91495
H         27.72588        4.89025      -16.44682
H         26.71094        4.53362      -14.22523
H         22.55833        5.61957      -10.75179
H         19.42049        7.99523       -6.75354
H         22.22855       -0.37585       -5.98594
H         23.54202        0.39468       -5.10092
H         23.54389        0.41362       -6.87819
H         20.66561        0.26551       -4.11996
H         20.30212        1.68781       -3.12440
H         21.95996        1.05983       -3.23182
H         19.78908        4.41123       -3.41152
H         17.09191        4.66679        0.18289
H         20.35530        5.30551       -1.27278
H         22.29844        3.80178       -1.10582
H         19.78026        0.72833        0.47352
H         17.83586        2.23022        0.29172
H         15.13154        6.46744        0.18107
H         10.28465       11.62162       -1.77738
H         14.21657        5.18801        2.48874
H         12.62571        4.69367        3.09574
H         13.60441        5.82563        4.02623
H         10.50759        5.81356        3.89441
H          9.93802        7.47885        4.12480
H         11.46739        6.94167        4.84868
H          9.73001       12.38759       -0.13550
H          6.32223       14.91956        1.01291
H          7.47020       12.59281       -1.42354
H          8.85345       13.09455       -3.41620
H          9.68055       16.98414       -1.85218
H          8.28396       16.49032        0.11763
H          4.70540       14.04146        3.02181
H          1.60143       10.24529        8.48039
H          1.45079       16.68794        2.51423
H          3.14744       16.19264        2.37108
H          2.68479       17.50976        3.46673
H          1.08292       17.83916        5.48035
H         -0.27089       16.89208        6.12289
H         -0.11545       17.17849        4.37527
H         -0.83663       14.24880        6.93127
H         -4.44236       15.52668        9.26712
H         -3.11149       13.74376        6.41593
H         -2.78675       14.69038        4.16363
H         -3.53008       18.60780        5.70745
H         -3.83932       17.65985        7.95956
H         -4.94808       14.31606       11.58647
H         -8.20289       14.03589       16.19038
H         -0.98761        9.75405       14.19460
H         -1.54998        8.36027       15.13927
H         -0.59004        9.61517       15.91939
H         -1.84502        9.27418       18.07859
H         -2.80225        8.00933       17.31105
H         -3.53158        9.02466       18.57087
H         -6.55788       12.13463       17.26121
