150
d2a6.out	Energy:  -11222.9351116
C         27.59712        8.88600       -3.51200
S         26.36273        8.77127       -2.30426
C         25.18375        9.19581       -3.47212
C         23.79425        9.45889       -3.51926
S         22.43800        9.43354       -2.47397
C         27.12845        9.22441       -4.74566
C         25.73112        9.39392       -4.74648
C         24.66491        9.79506       -5.66100
C         24.69064       10.08789       -6.97533
C         25.81111        9.91663       -7.88435
C         26.61300        8.77402       -7.83487
C         27.65419        8.60645       -8.72435
C         27.90875        9.58457       -9.67935
C         29.06526        9.39211      -10.61583
F         29.10113        8.15338      -11.13875
F         29.05927       10.24172      -11.65187
F         30.25086        9.56352       -9.99498
C         27.11215       10.71972       -9.75368
C         26.06290       10.87326       -8.86987
C         23.46314        9.85101       -4.82507
C         22.11146       10.12986       -4.98204
C         21.40506        9.95144       -3.79832
C         20.02241       10.12860       -3.62720
C         19.09052       10.53996       -4.58576
N         19.17195       10.90280       -5.86493
S         17.68032       11.25329       -6.37623
N         16.86184       10.96548       -5.01804
C         17.73281       10.57792       -4.09158
C         17.60794       10.19227       -2.75426
S         19.19382        9.80836       -2.12593
C         16.44389       10.06321       -1.98706
S         14.87472       10.43707       -2.68190
C         14.11748        9.96894       -1.21239
C         12.81596        9.77761       -0.72421
S         11.19252        9.95895       -1.25656
C         16.35316        9.61981       -0.67085
C         15.04430        9.57501       -0.21875
C         14.30714        9.13147        0.96410
C         14.74648        8.67176        2.15101
C         16.12304        8.64406        2.61628
C         16.98570        9.71902        2.39350
C         18.28735        9.68610        2.85178
C         18.74220        8.57308        3.54774
C         20.16689        8.50642        4.01532
F         20.72408        9.71536        4.17901
F         20.29869        7.86412        5.18760
F         20.95423        7.84675        3.14044
C         17.89128        7.50285        3.79781
C         16.58821        7.54800        3.34630
C         12.90182        9.24061        0.57903
C         11.66449        8.96724        1.13154
C         10.62064        9.28680        0.26439
C          9.25415        9.08513        0.47874
C          8.17784        9.39642       -0.36016
N          8.07774        9.99265       -1.54438
S          6.51791       10.03018       -1.95565
N          5.89399        9.29511       -0.65795
C          6.89696        8.98502        0.16035
C          6.97636        8.34355        1.40482
S          8.64417        8.29532        1.91711
C          5.91657        7.77462        2.11655
S          6.12010        6.96296        3.66195
C          4.44419        6.58387        3.68351
C          3.55004        5.84053        4.46235
S          3.56569        4.89857        5.89637
C          4.59485        7.74983        1.67494
C          3.75666        7.09265        2.55670
C          2.35717        6.66882        2.62797
C          1.35585        6.90211        1.76008
C          1.46019        7.76251        0.58802
C          0.99803        7.32083       -0.65178
C          1.15819        8.09926       -1.78145
C          1.75796        9.34756       -1.67505
C          1.99993       10.18295       -2.89748
F          1.20733        9.85832       -3.92865
F          1.81817       11.49526       -2.67490
F          3.26835       10.05966       -3.34800
C          2.17430        9.82588       -0.43843
C          2.02165        9.03699        0.68317
C          2.28116        5.85402        3.83901
C          1.33842        5.10150        4.51613
C          1.86936        4.49931        5.65696
C          1.19457        3.63311        6.52316
C         -0.12682        3.17600        6.41669
N         -1.12285        3.41106        5.56645
S         -2.39582        2.53030        6.03049
N         -1.75164        1.81383        7.32603
C         -0.49476        2.23660        7.44815
C          0.53658        1.96715        8.35874
S          1.94386        2.89785        7.91929
C          0.47296        1.07592        9.43724
S          1.77804        0.85046       10.59117
C          0.83858       -0.32028       11.42662
C          0.97418       -1.19747       12.51583
S          2.13470       -1.59721       13.71374
C         -0.62490        0.26736        9.71681
C         -0.43168       -0.51451       10.84271
C         -1.13865       -1.56103       11.58423
C         -2.34703       -2.09990       11.34184
C         -3.26343       -1.63468       10.30671
C         -3.83086       -2.54070        9.41104
C         -4.63212       -2.09940        8.37608
C         -4.89978       -0.74254        8.24625
C         -5.70728       -0.23458        7.08879
F         -6.50136       -1.16682        6.54370
F         -6.50085        0.79766        7.41896
F         -4.91961        0.21650        6.08609
C         -4.38975        0.16728        9.16451
C         -3.57996       -0.28060       10.18812
C         -0.20082       -1.96774       12.62771
C         -0.15588       -2.87317       13.67859
C          1.04470       -2.80662       14.37399
C          1.40024       -3.59577       15.48462
C          0.63410       -4.58988       16.09732
N         -0.57653       -5.09917       15.87926
S         -0.83343       -6.24262       16.98842
N          0.55047       -6.16200       17.79701
C          1.30548       -5.21223       17.22730
C          2.55603       -4.69459       17.46070
S          2.91800       -3.46360       16.32073
H         28.61204        8.69231       -3.22698
H         27.76803        9.35630       -5.59918
H         23.78843       10.49385       -7.41558
H         26.39280        8.00415       -7.11206
H         28.26776        7.71884       -8.68985
H         27.30981       11.46920      -10.50445
H         25.43919       11.75257       -8.92729
H         21.62134       10.44599       -5.88433
H         17.22549        9.32812       -0.11426
H         14.01150        8.27043        2.83742
H         16.61843       10.59414        1.88087
H         18.94907       10.52101        2.67905
H         18.25090        6.64863        4.35085
H         15.92467        6.71888        3.54059
H         11.48402        8.54624        2.10443
H          4.32477        8.18801        0.73281
H          0.41007        6.39874        1.91244
H          0.54067        6.34635       -0.73296
H          0.82097        7.74346       -2.74291
H          2.61924       10.80593       -0.36231
H          2.33211        9.40749        1.64756
H          0.31260        4.95148        4.23398
H         -1.49075        0.28117        9.08283
H         -2.65845       -2.95982       11.92029
H         -3.61204       -3.59335        9.50818
H         -5.04810       -2.80099        7.66933
H         -4.62031        1.21685        9.06806
H         -3.18703        0.41927       10.90893
H         -0.92797       -3.56530       13.96014
H          3.26693       -4.95731       18.21542
