146
d3a3.out	Energy:  -17070.4046608
C         18.83536       -5.64762      -12.32955
S         17.39466       -5.18238      -11.49072
C         18.30280       -4.07679      -10.54829
C         18.06194       -3.09182       -9.55778
S         16.75526       -2.45591       -8.65513
C         19.95216       -4.99402      -11.90454
C         19.66594       -4.09116      -10.86263
C         20.34779       -3.08514      -10.04950
C         21.64299       -2.71818      -10.00496
C         22.75881       -3.36978      -10.66946
C         23.77857       -2.60011      -11.23357
C         24.85233       -3.19752      -11.86295
C         24.91684       -4.57954      -11.90088
F         25.96564       -5.17058      -12.50898
C         23.94262       -5.37191      -11.31932
C         22.86569       -4.76140      -10.70716
C         19.28032       -2.46768       -9.26125
C         19.14913       -1.47449       -8.29501
C         17.84197       -1.33199       -7.85897
C         17.33377       -0.40978       -6.89486
C         18.12612        0.52052       -6.22106
N         17.70403        1.40812       -5.33639
C         16.42274        1.48396       -5.00059
C         15.48432        0.58406       -5.59076
C         15.95310       -0.37547       -6.55500
N         15.00587       -1.16147       -7.04578
Se        13.46582       -0.73398       -6.32375
N         14.18643        0.53225       -5.34452
C         16.02129        2.47535       -4.06227
S         14.35129        2.63341       -3.57338
C         14.77738        3.95012       -2.56645
C         14.12186        4.88781       -1.74573
S         12.53593        5.23586       -1.20443
C         16.85044        3.40660       -3.45261
C         16.15824        4.24300       -2.58568
C         16.40257        5.40982       -1.73511
C         17.54457        6.06262       -1.44333
C         18.89656        5.66344       -1.79309
C         19.83395        6.63455       -2.15338
C         21.12761        6.28359       -2.48350
C         21.49064        4.94922       -2.42459
F         22.75462        4.60009       -2.73966
C         20.59762        3.96635       -2.03519
C         19.30280        4.32933       -1.72176
C         15.07673        5.79413       -1.25263
C         14.51152        6.76862       -0.43845
C         13.13802        6.61733       -0.30797
C         12.22862        7.42789        0.43393
C         12.60091        8.57355        1.14037
N         11.79426        9.35390        1.83855
C         10.49584        9.09147        1.92840
C          9.95872        7.94926        1.26093
C         10.84345        7.10950        0.49963
N         10.24862        6.07960       -0.08392
Se         8.53544        6.10926        0.29177
N          8.69385        7.56439        1.26095
C          9.67144        9.96176        2.69320
S          7.96595        9.63865        2.89511
C          7.82031       11.04490        3.85879
C          6.79689       11.75689        4.51227
S          5.11296       11.62421        4.78956
C         10.08234       11.11303        3.35169
C          9.04182       11.73230        4.03203
C          8.79354       12.93587        4.82875
C          9.62857       13.91690        5.22264
C         11.07330       13.94964        5.07150
C         11.70659       15.14882        4.73671
C         13.07762       15.20870        4.58692
C         13.82123       14.06141        4.80302
F         15.16140       14.11409        4.66382
C         13.22913       12.86680        5.17376
C         11.85537       12.81692        5.30505
C          7.35534       12.90950        5.09225
C          6.41074       13.67362        5.76689
C          5.13905       13.12069        5.70240
C          3.93260       13.62088        6.27581
C          3.86085       14.78220        7.04763
N          2.76996       15.28085        7.60280
C          1.59341       14.68330        7.46010
C          1.49972       13.48318        6.69326
C          2.69274       12.94604        6.09576
N          2.50181       11.82972        5.40845
Se         0.80559       11.38911        5.47643
N          0.40201       12.78226        6.46424
C          0.45532       15.26504        8.08535
S         -1.13536       14.56367        7.91231
C         -1.78366       15.80461        8.89739
C         -3.02999       16.14922        9.45983
S         -4.64753       15.58934        9.45126
C          0.45643       16.40755        8.87275
C         -0.81412       16.73515        9.32911
C         -1.45958       17.71895       10.19997
C         -0.94964       18.77479       10.86370
C          0.39616       19.31060       10.75596
C          1.03882       19.42174        9.52132
C          2.31064       19.95189        9.43142
C          2.94254       20.37106       10.58912
F          4.18776       20.88156       10.50872
C          2.32531       20.29633       11.82585
C          1.04780       19.77850       11.89961
C         -2.85449       17.28797       10.26441
C         -4.03829       17.70007       10.86623
C         -5.11081       16.88727       10.53418
C         -6.46820       17.00870       10.97001
C         -6.91533       18.00649       11.82891
N         -8.16984       18.15482       12.25809
C         -9.10533       17.32906       11.87833
C         -8.82348       16.25658       11.00521
C         -7.46983       16.09205       10.53901
N         -7.29249       15.06266        9.72414
Se        -8.82408       14.24044        9.50039
N         -9.67919       15.35061       10.54450
H         18.76268       -6.38959      -13.09977
H         20.92356       -5.15193      -12.33619
H         21.89503       -1.84261       -9.41917
H         23.71359       -1.52290      -11.19401
H         25.63697       -2.61192      -12.31534
H         24.03810       -6.44603      -11.34742
H         22.11163       -5.36212      -10.22264
H         19.95854       -0.87399       -7.92258
H         19.18989        0.56042       -6.40860
H         17.89952        3.44051       -3.67885
H         17.46074        6.99168       -0.89252
H         19.53494        7.67147       -2.19404
H         21.85439        7.02429       -2.77762
H         20.92107        2.93901       -1.97938
H         18.60287        3.58055       -1.38607
H         15.05927        7.55819        0.04234
H         13.63363        8.89299        1.14463
H         11.10152       11.44562        3.29295
H          9.18852       14.78818        5.69249
H         11.11186       16.03495        4.57149
H         13.57454       16.12585        4.31266
H         13.84171       11.99796        5.35545
H         11.38004       11.90240        5.62309
H          6.62166       14.59237        6.28256
H          4.75419       15.36008        7.23840
H          1.37072       16.92901        9.08440
H         -1.59946       19.28385       11.56523
H          0.51975       19.11927        8.62554
H          2.81333       20.04531        8.48183
H          2.84296       20.64545       12.70528
H          0.55225       19.71310       12.85687
H         -4.12793       18.54838       11.51936
H         -6.22921       18.74902       12.20938
H        -10.10408       17.49359       12.25454
