202
d3a4.out	Energy:  -10996.8741149
C         16.17196      -11.68782        7.43737
S         15.27767      -10.25385        7.81115
C         15.97648       -9.46570        6.45964
C         15.96728       -8.17543        5.87708
S         15.21603       -6.64957        6.10383
C         16.95811      -11.57029        6.33066
C         16.84710      -10.29647        5.74262
C         17.42813       -9.52818        4.64309
C         18.31322       -9.87826        3.69024
C         18.81498      -11.21315        3.41379
C         17.96645      -12.32250        3.42798
C         18.44908      -13.58205        3.13784
C         19.79369      -13.74955        2.82647
C         20.31039      -15.13066        2.55136
F         20.51893      -15.82744        3.68908
F         19.45468      -15.86767        1.82240
F         21.47724      -15.13941        1.89131
C         20.64893      -12.65545        2.79057
C         20.15561      -11.39675        3.06816
C         16.85933       -8.18757        4.79348
C         16.93202       -6.96103        4.14837
C         16.10580       -6.00941        4.73272
C         15.93338       -4.65889        4.34011
C         16.61992       -4.05747        3.25940
N         17.52185       -4.64085        2.46754
S         18.04935       -3.57875        1.38295
N         17.16908       -2.31965        1.85455
C         16.40802       -2.67349        2.89179
C         15.03641       -3.81569        5.03686
N         14.36482       -4.32829        6.08252
C         13.52683       -3.58885        6.75849
C         12.81716       -4.21658        7.90897
C         13.31379       -2.22632        6.39229
C         12.36833       -1.34735        7.13692
N         13.95611       -1.71014        5.37849
C         14.82339       -2.45568        4.67276
C         15.49649       -1.84571        3.58897
C         15.25667       -0.49089        3.26340
S         14.13346        0.47553        4.19901
C         14.47893        1.83484        3.20221
C         14.06481        3.16825        3.06147
S         12.97679        4.26346        3.80301
C         15.84997        0.23090        2.23333
C         15.43644        1.55099        2.20128
C         15.65222        2.75004        1.39015
C         16.43678        2.92142        0.31040
C         17.35685        1.92182       -0.21690
C         17.37526        1.63248       -1.58156
C         18.19362        0.63859       -2.08107
C         19.02954       -0.05937       -1.21863
C         19.87690       -1.18662       -1.72740
F         20.11254       -1.12490       -3.04543
F         21.07765       -1.24973       -1.12758
F         19.29749       -2.38990       -1.50832
C         19.06410        0.25360        0.13514
C         18.23532        1.24044        0.62744
C         14.75345        3.74600        1.97052
C         14.41247        5.06923        1.76297
C         13.45673        5.52433        2.67021
C         12.86622        6.80719        2.77034
C         11.82576        7.03419        3.69771
N         11.32438        6.13177        4.53957
S         10.13925        6.80260        5.39638
N         10.20167        8.27157        4.74162
C         11.16215        8.30293        3.81893
C         13.24413        7.94187        1.99725
N         14.23828        7.80678        1.09730
C         14.65417        8.83647        0.40906
C         15.74964        8.61771       -0.58032
C         14.07770       10.11946        0.61550
C         14.58474       11.32997       -0.09274
N         13.08038       10.27021        1.44643
C         12.61256        9.22042        2.15093
C         11.52223        9.42698        3.04368
C         10.82019       10.64677        3.20205
S          9.52223       10.74763        4.38666
C          9.26486       12.39008        3.97512
C          8.47938       13.46268        4.42020
S          7.23629       13.77462        5.56694
C         11.00146       11.85203        2.52605
C         10.12337       12.83835        2.94166
C          9.86327       14.25855        2.70131
C         10.39391       15.11888        1.81079
C         11.27832       14.80180        0.70423
C         11.09187       13.65279       -0.06739
C         11.91224       13.38366       -1.14403
C         12.94113       14.26209       -1.46003
C         13.85621       13.99802       -2.61791
F         13.71301       12.77053       -3.14309
F         13.66839       14.86466       -3.63118
F         15.15542       14.10632       -2.27701
C         13.12971       15.42193       -0.71584
C         12.29511       15.69220        0.34822
C          8.84951       14.61517        3.69224
C          8.14391       15.73875        4.08023
C          7.22770       15.46421        5.09458
C          6.36064       16.37848        5.73198
C          6.33220       17.76426        5.45703
N          7.06947       18.42889        4.56741
S          6.69482       19.99339        4.62914
N          5.58206       19.91132        5.78668
C          5.44795       18.64586        6.18058
C          5.44413       15.93619        6.71924
N          5.44681       14.62145        6.99423
C          4.60438       14.11699        7.85492
C          4.66587       12.65317        8.12243
C          3.65906       14.97013        8.49298
C          2.62505       14.42321        9.41803
N          3.66519       16.26002        8.27962
C          4.54570       16.80235        7.41428
C          4.55599       18.20505        7.18494
C          3.75495       19.13976        7.88863
S          3.80482       20.84295        7.45371
C          2.67277       21.19772        8.68929
C          1.95899       22.31074        9.17032
S          1.82261       23.99071        8.86723
C          2.89759       18.90016        8.95813
C          2.29575       20.05531        9.43148
C          1.31123       20.45087       10.43947
C          0.66819       19.73041       11.37877
C          0.92174       18.35125       11.75530
C          2.22268       17.85323       11.85374
C          2.45348       16.55321       12.25560
C          1.37859       15.72750       12.56007
C          1.59071       14.31012       13.00037
F          2.85728       13.88900       12.85538
F          1.27809       14.12261       14.29680
F          0.82864       13.44033       12.30874
C          0.07655       16.21102       12.48607
C         -0.14483       17.51586       12.09861
C          1.11017       21.87946       10.20989
C          0.36245       22.91101       10.75342
C          0.61914       24.13306       10.14398
C          0.04610       25.40273       10.43474
C          0.44122       26.53874        9.69528
N          1.33443       26.55037        8.70567
S          1.47789       28.05171        8.14791
N          0.42657       28.77068        9.11794
C         -0.10081       27.85522        9.94382
C         -0.92189       25.63551       11.44512
N         -1.35998       24.61114       12.20918
C         -2.24925       24.82549       13.13942
C         -2.69332       23.65568       13.95432
C         -2.77623       26.13576       13.36690
C         -3.79561       26.39361       14.42579
N         -2.37716       27.14610       12.65103
C         -1.45082       26.95211       11.67791
C         -1.04792       28.05837       10.93650
H         16.05783      -12.54362        8.07264
H         17.59175      -12.36295        5.97664
H         18.70370       -9.09084        3.05772
H         16.91781      -12.18307        3.63937
H         17.78922      -14.43650        3.14232
H         21.68885      -12.79261        2.53686
H         20.81674      -10.54383        3.03694
H         17.54309       -6.72586        3.29704
H         13.13012       -5.25249        8.00036
H         11.73955       -4.17484        7.75808
H         13.04769       -3.68551        8.83131
H         11.36104       -1.75974        7.10297
H         12.36984       -0.35866        6.68756
H         12.66472       -1.27157        8.18204
H         16.54065       -0.23898        1.55993
H         16.36522        3.85153       -0.23831
H         16.71796        2.17010       -2.24831
H         18.18675        0.40168       -3.13401
H         19.73319       -0.27841        0.79373
H         18.26774        1.49723        1.67456
H         14.80512        5.71768        1.00346
H         16.02579        7.56736       -0.59656
H         16.62274        9.21200       -0.31462
H         15.42730        8.92278       -1.57469
H         15.65003       11.45914        0.09117
H         14.05276       12.20991        0.25794
H         14.44331       11.22528       -1.16733
H         11.77089       11.95299        1.78480
H         10.13465       16.16526        1.91449
H         10.27794       12.98522        0.16538
H         11.75735       12.49577       -1.73737
H         13.92491       16.10306       -0.97864
H         12.43724       16.59348        0.92525
H          8.25531       16.73052        3.68269
H          5.48202       12.21776        7.55359
H          3.72988       12.17706        7.83356
H          4.82050       12.46873        9.18431
H          2.02825       13.66560        8.91284
H          1.97348       15.22438        9.75545
H          3.09916       13.95294       10.27779
H          2.74512       17.90392        9.32664
H         -0.12676       20.22268       11.92519
H          3.05555       18.50423       11.64202
H          3.46247       16.17868       12.33322
H         -0.74991       15.56293       12.73569
H         -1.15452       17.89398       12.04285
H         -0.34948       22.83068       11.55256
H         -2.17257       22.76102       13.62506
H         -3.76680       23.50545       13.84830
H         -2.48039       23.82594       15.00874
H         -4.69135       25.80195       14.24271
H         -4.05384       27.44846       14.42387
H         -3.40425       26.11928       15.40433
H         -1.46424       29.03012       11.13766
