150
d3a6.out	Energy:  -11222.9330654
C         27.22763       16.13690       -4.26023
S         25.76762       17.04921       -4.43949
C         24.88178       15.76978       -3.72349
C         23.53059       15.45161       -3.44648
S         21.97792       16.16774       -3.57494
C         27.04560       14.91976       -3.67594
C         25.69638       14.69470       -3.34392
C         24.85403       13.63706       -2.79058
C         25.16329       12.42700       -2.28552
C         26.49203       11.90950       -2.00955
C         27.48064       12.71833       -1.44426
C         28.73041       12.20725       -1.16132
C         29.00897       10.87388       -1.44089
C         30.38641       10.35247       -1.15441
F         31.29649       10.82665       -2.03111
F         30.82923       10.71381        0.06335
F         30.47439        9.01704       -1.21006
C         28.03208       10.04956       -1.98403
C         26.77935       10.56431       -2.25099
C         23.48971       14.15501       -2.91104
C         22.20124       13.73927       -2.60499
C         21.25675       14.71330       -2.90508
C         19.86781       14.63505       -2.71956
C         18.89213       15.60600       -2.95267
N         18.92688       16.85474       -3.41208
S         17.41750       17.42101       -3.41890
N         16.64586       16.12629       -2.84491
C         17.55145       15.17862       -2.61940
C         17.48389       13.87056       -2.13541
S         19.09873       13.19518       -2.09929
C         16.37653       13.12981       -1.70566
S         14.77192       13.83749       -1.63638
C         14.14995       12.35668       -1.02317
C         12.90973       11.81301       -0.65511
S         11.26958       12.30537       -0.52671
C         16.39532       11.80739       -1.27212
C         15.14682       11.36592       -0.86978
C         14.52276       10.13565       -0.38271
C         15.07528        8.93704       -0.12011
C         16.50166        8.64235       -0.14260
C         17.41721        9.49091        0.48332
C         18.76966        9.22340        0.43758
C         19.22560        8.09664       -0.23823
C         20.70483        7.85395       -0.29643
F         21.36595        8.89222       -0.85102
F         21.24577        7.69095        0.92587
F         21.04460        6.77185       -1.00823
C         18.32684        7.22115       -0.83254
C         16.97309        7.48970       -0.77145
C         13.10282       10.46476       -0.27957
C         11.93133        9.84162        0.10882
C         10.83334       10.69780        0.03622
C          9.50579       10.40494        0.36053
C          8.39163       11.25173        0.32492
N          8.21739       12.52707       -0.00758
S          6.65774       12.88879        0.19663
N          6.12893       11.45192        0.71660
C          7.16669       10.61902        0.74817
C          7.32643        9.27367        1.10981
S          9.00229        8.82450        0.91799
C          6.32540        8.40955        1.56188
S          6.63251        6.74547        2.03443
C          4.96961        6.54866        2.41749
C          4.10833        5.53357        2.84849
S          4.19302        3.88269        3.30475
C          4.98490        8.76406        1.70629
C          4.21774        7.72784        2.20544
C          2.81521        7.45603        2.52605
C          1.75538        8.28109        2.44998
C          1.83561        9.70251        2.13400
C          0.99317       10.26210        1.17387
C          1.10726       11.59439        0.82637
C          2.05121       12.39014        1.46189
C          2.23631       13.82700        1.07221
F          1.22801       14.31586        0.33778
F          2.36048       14.63849        2.13739
F          3.35718       14.01070        0.34049
C          2.86337       11.86083        2.45809
C          2.75148       10.52670        2.79041
C          2.79200        6.04590        2.91010
C          1.86607        5.10624        3.32720
C          2.45616        3.86867        3.58356
C          1.80366        2.70882        4.01323
C          0.44085        2.53460        4.28770
N         -0.62217        3.33229        4.24201
S         -1.91074        2.46754        4.69789
N         -1.19058        1.05087        4.97293
C          0.10587        1.19559        4.71669
C          1.20115        0.32938        4.77270
S          2.63963        1.20088        4.29284
C          1.24124       -1.02080        5.14142
S         -0.21351       -1.85254        5.66491
C          0.69740       -3.29016        5.89381
C          0.46635       -4.62999        6.25431
S         -0.84073       -5.62789        6.74465
C          2.36220       -1.84526        5.15701
C          2.06809       -3.12652        5.59650
C          2.74745       -4.41065        5.77991
C          4.03787       -4.74825        5.59800
C          5.13555       -3.84371        5.29378
C          5.27560       -2.62370        5.95769
C          6.32431       -1.77585        5.66240
C          7.24967       -2.14041        4.69232
C          8.40357       -1.23366        4.37816
F          8.13575        0.05855        4.61728
F          9.49528       -1.53102        5.11432
F          8.79219       -1.31202        3.09501
C          7.14457       -3.36557        4.04456
C          6.09963       -4.21242        4.35323
C          1.68478       -5.33186        6.17552
C          1.55575       -6.67161        6.51466
C          0.24933       -7.00110        6.84847
C         -0.25303       -8.25633        7.23973
C         -1.56257       -8.58991        7.58012
N         -2.70089       -7.90435        7.64797
S         -3.85605       -8.92276        8.11907
N         -2.99773      -10.27236        8.26328
C         -1.72709       -9.98827        7.94128
C         -0.55489      -10.69953        7.87332
S          0.73704       -9.68177        7.37543
H         28.14645       16.56676       -4.60632
H         27.84755       14.22327       -3.51237
H         24.34478       11.75621       -2.05542
H         27.24991       13.74335       -1.19995
H         29.49121       12.83192       -0.71801
H         28.25215        9.01251       -2.18532
H         26.01570        9.92541       -2.66807
H         21.92645       12.78703       -2.18748
H         17.30097       11.22884       -1.27995
H         14.41891        8.10771        0.10988
H         17.05626       10.35434        1.01996
H         19.47638        9.88364        0.91727
H         18.68684        6.33907       -1.33927
H         16.27232        6.81440       -1.23857
H         11.83464        8.82179        0.43578
H          4.64630        9.74572        1.43397
H          0.76606        7.87212        2.60864
H          0.26606        9.63894        0.67546
H          0.46895       12.01741        0.06596
H          3.57924       12.49290        2.96049
H          3.37109       10.11259        3.57033
H          0.80952        5.25646        3.45205
H          3.32535       -1.48931        4.83892
H          4.29919       -5.79688        5.66580
H          4.56902       -2.35679        6.72786
H          6.42612       -0.83206        6.17601
H          7.87775       -3.64648        3.30402
H          6.01292       -5.16261        3.84816
H          2.34790       -7.39869        6.52657
H         -0.37522      -11.73341        8.08007
