146
d3a8.out	Energy:   -9197.4984623
C          8.11071      -13.67201        4.17302
S          7.20578      -12.28210        3.67744
C          8.65408      -11.37350        3.58833
C          9.04705      -10.03477        3.32839
S          8.33513       -8.54175        2.88593
C          9.45123      -13.44976        4.25884
C          9.78707      -12.12694        3.90974
C         10.96253      -11.25804        3.85480
C         12.26189      -11.51066        4.10238
C         12.86260      -12.80913        4.35685
C         12.50682      -13.93198        3.60689
C         13.09537      -15.15616        3.85046
C         14.05296      -15.27254        4.85145
C         14.64909      -16.61947        5.13720
F         14.87405      -17.33415        4.02173
F         15.81788      -16.55486        5.79024
F         13.83458      -17.37765        5.90218
C         14.43476      -14.16153        5.59292
C         13.85257      -12.93733        5.33336
C         10.42955       -9.94045        3.50314
C         10.91678       -8.65357        3.27167
C          9.91271       -7.76913        2.93108
C         10.03813       -6.38599        2.64038
C          9.05162       -5.48059        2.31684
C          9.53195       -4.18966        2.09243
C         10.89699       -4.07976        2.23723
S         11.60178       -5.61686        2.66691
C         11.72407       -2.93794        2.08679
S         11.03796       -1.36553        1.71361
C         12.60749       -0.67528        1.72095
C         13.21199        0.57385        1.45136
S         12.74356        2.16877        1.03947
C         13.09830       -2.89191        2.20918
C         13.61093       -1.60845        2.01915
C         14.91285       -0.94115        1.95414
C         16.14457       -1.43540        2.17866
C         16.43924       -2.76463        2.69345
C         17.47030       -3.52332        2.13803
C         17.73727       -4.79787        2.59901
C         16.98696       -5.31884        3.64466
C         17.23058       -6.70467        4.16457
F         18.22283       -7.34830        3.53746
F         17.54014       -6.71255        5.47540
F         16.13806       -7.48902        4.04559
C         15.98806       -4.55808        4.24265
C         15.71998       -3.29075        3.76906
C         14.60175        0.43081        1.55540
C         15.28633        1.61703        1.29416
C         14.43097        2.66013        0.99502
C         14.76628        3.99954        0.67270
C         13.91856        5.06673        0.46732
C         14.58221        6.25495        0.16368
C         15.95282        6.12257        0.12133
S         16.43015        4.48324        0.48001
C         16.93022        7.10728       -0.16992
S         16.46835        8.78418       -0.41240
C         18.10734        9.19796       -0.69461
C         18.85591       10.33654       -1.07017
S         18.59871       11.99948       -1.38993
C         18.29106        6.91638       -0.30218
C         18.97324        8.09951       -0.58868
C         20.33446        8.53956       -0.90288
C         21.48032        7.83492       -0.94761
C         21.63543        6.44612       -0.54047
C         22.37324        5.56179       -1.32843
C         22.49721        4.23303       -0.97222
C         21.90134        3.77936        0.19698
C         22.00288        2.34230        0.61510
F         22.60390        1.56031       -0.29086
F         22.69107        2.19098        1.76334
F         20.79141        1.79338        0.84227
C         21.20580        4.65805        1.02051
C         21.07593        5.98085        0.65156
C         20.19587        9.95929       -1.22509
C         21.01348       11.02168       -1.60791
C         20.30826       12.20221       -1.74458
C         20.80626       13.47446       -2.12395
C         20.13059       14.67305       -2.20132
C         20.93186       15.73942       -2.61005
C         22.23784       15.38000       -2.85920
S         22.47815       13.67529       -2.57554
C         23.31910       16.18686       -3.29584
S         23.11624       17.91143       -3.55729
C         24.75858       18.03724       -4.03118
C         25.67840       19.04775       -4.40307
S         25.70322       20.73974       -4.65990
C         24.60326       15.76521       -3.57516
C         25.42466       16.80452       -4.01291
C         26.82145       17.01460       -4.40007
C         27.81823       16.11935       -4.52250
C         27.66778       14.67412       -4.41939
C         26.63399       14.01551       -5.08853
C         26.47990       12.64939       -4.97537
C         27.36521       11.92058       -4.18875
C         27.14631       10.44340       -4.04645
F         26.95940        9.83425       -5.23088
F         28.16074        9.80637       -3.44726
F         26.04456       10.16423       -3.31554
C         28.41772       12.55451       -3.54203
C         28.57255       13.92111       -3.67090
C         26.93070       18.45760       -4.60782
C         27.90841       19.38248       -4.97914
C         27.41206       20.66891       -5.05116
C         28.12209       21.85784       -5.39167
C         29.44436       21.98668       -5.74485
C         29.81477       23.31451       -6.01961
C         28.78439       24.18996       -5.87681
S         27.33133       23.40912       -5.40158
H          7.58154      -14.58220        4.37356
H         10.14989      -14.20326        4.57337
H         12.94150      -10.66787        4.12931
H         11.78490      -13.82992        2.81172
H         12.82286      -16.02151        3.26533
H         15.18879      -14.25807        6.35886
H         14.15016      -12.07084        5.90426
H         11.94611       -8.35080        3.34621
H          8.01464       -5.75820        2.24814
H          8.91043       -3.35182        1.82985
H         13.67655       -3.77485        2.41241
H         16.99860       -0.80933        1.95378
H         18.04903       -3.11705        1.32240
H         18.52320       -5.38717        2.15239
H         15.42712       -4.96459        5.07065
H         14.95976       -2.68921        4.24238
H         16.35466        1.73962        1.31117
H         12.84927        4.97528        0.54039
H         14.08741        7.19088       -0.02695
H         18.73544        5.94227       -0.20781
H         22.36682        8.32142       -1.33422
H         22.83064        5.91675       -2.23946
H         23.05118        3.54912       -1.59659
H         20.76771        4.29902        1.93957
H         20.55358        6.67090        1.29569
H         22.07236       10.96336       -1.78703
H         19.08531       14.76155       -1.96319
H         20.57935       16.74899       -2.72681
H         24.90201       14.74098       -3.44540
H         28.82167       16.48477       -4.69950
H         25.96060       14.58383       -5.71103
H         25.67798       12.14330       -5.49127
H         29.10946       11.97994       -2.94549
H         29.38728       14.41714       -3.16529
H         28.93517       19.14193       -5.18386
H         30.12334       21.15620       -5.80599
H         30.80718       23.60756       -6.31220
H         28.78612       25.25173       -6.02170
