214
d4a4.out	Energy:  -12344.5996071
C         15.00167      -11.79045        0.34241
S         14.31783      -10.45984        1.21113
C         15.07178       -9.36703        0.13209
C         15.21912       -7.96403       -0.01021
S         14.67465       -6.52167        0.72729
C         15.76184      -11.41544       -0.72413
C         15.80163      -10.01550       -0.87300
C         16.44166       -9.00476       -1.71312
C         17.22913       -9.11666       -2.80192
C         17.52599      -10.32337       -3.54793
C         16.55566      -11.30235       -3.76669
C         16.85969      -12.43995       -4.49758
C         15.77959      -13.47259       -4.67548
F         14.66069      -12.94759       -5.20195
F         16.13787      -14.48859       -5.46595
F         15.41671      -14.01352       -3.49609
C         18.12235      -12.63325       -5.03832
C         19.07522      -11.64004       -4.84987
C         20.45569      -11.82856       -5.41966
F         20.45779      -12.55678       -6.54345
F         21.05501      -10.66542       -5.71306
F         21.26928      -12.46333       -4.55485
C         18.78826      -10.49855       -4.12131
C         16.06883       -7.72777       -1.10116
C         16.28094       -6.37553       -1.33287
C         15.60226       -5.57066       -0.42753
C         15.55907       -4.15146       -0.35734
C         14.71419       -3.51509        0.57497
N         13.93023       -4.12694        1.46431
S         13.14022       -3.02336        2.32439
N         13.74542       -1.71400        1.61665
C         14.60352       -2.08470        0.66571
C         16.31097       -3.27781       -1.18797
N         17.20241       -3.80809       -2.05116
C         17.86817       -3.04234       -2.87095
C         18.87846       -3.68205       -3.76244
C         17.61859       -1.64024       -2.90696
C         18.24445       -0.75906       -3.93573
N         16.81830       -1.09215       -2.03449
C         16.16953       -1.85130       -1.12692
C         15.32857       -1.21493       -0.17426
C         15.18004        0.18938       -0.04266
S         13.96982        0.85286        1.04732
C         14.42435        2.44191        0.59681
C         13.99086        3.76310        0.81175
S         12.78489        4.60110        1.69098
C         15.90366        1.18681       -0.68407
C         15.50565        2.46107       -0.31373
C         15.80833        3.84796       -0.66402
C         16.78184        4.35853       -1.44475
C         17.89391        3.62282       -2.01605
C         18.37876        3.95303       -3.28399
C         19.44327        3.25533       -3.82811
C         19.94338        3.57323       -5.21130
F         19.47053        4.72931       -5.69084
F         21.28189        3.65214       -5.26307
F         19.59051        2.62033       -6.09577
C         20.06041        2.22407       -3.13150
C         19.59344        1.91511       -1.86120
C         20.26806        0.82920       -1.06737
F         20.80130       -0.12459       -1.84827
F         21.27781        1.30725       -0.31772
F         19.43360        0.20756       -0.22438
C         18.53526        2.60920       -1.29989
C         14.78528        4.62830        0.02771
C         14.40257        5.95307        0.13427
C         13.31672        6.12671        0.98882
C         12.61869        7.31959        1.30122
C         11.54179        7.28807        2.21423
N         11.13411        6.22211        2.90245
S          9.86112        6.62317        3.80017
N          9.75589        8.16625        3.35898
C         10.72526        8.43924        2.48591
C         12.89147        8.59395        0.72850
N         13.91086        8.71367       -0.14576
C         14.21545        9.87661       -0.65561
C         15.32491        9.93639       -1.65062
C         13.50965       11.04459       -0.25248
C         13.93289       12.40897       -0.68523
N         12.47432       10.94753        0.53704
C         12.09818        9.74945        1.02748
C         10.94443        9.68171        1.85708
C         10.02297       10.74293        2.02756
S          8.69889       10.60443        3.17540
C          8.10004       12.13207        2.67974
C          7.06037       13.01876        3.01381
S          5.75075       13.12326        4.11182
C          9.96357       11.92910        1.30519
C          8.86587       12.70368        1.63682
C          8.27454       13.98589        1.25791
C          8.62636       14.85530        0.28941
C          9.63429       14.63358       -0.73135
C          9.77585       13.38867       -1.34926
C         10.75215       13.18900       -2.31039
C         10.88695       11.83557       -2.95389
F         10.55775       10.83343       -2.12789
F         10.09747       11.70970       -4.03548
F         12.13842       11.58583       -3.37346
C         11.58914       14.22283       -2.70785
C         11.41927       15.47031       -2.12198
C         12.33827       16.58899       -2.53230
F         12.62159       16.56693       -3.84243
F         11.83811       17.80174       -2.26546
F         13.52159       16.51693       -1.89150
C         10.45686       15.68195       -1.14910
C          7.16017       14.15881        2.18578
C          6.17113       15.09256        2.43508
C          5.31026       14.69705        3.45554
C          4.19259       15.38915        3.98499
C          3.48341       14.85316        5.08161
N          3.77074       13.71623        5.71522
S          2.70313       13.48058        6.89449
N          1.82073       14.80427        6.66353
C          2.32834       15.49786        5.64400
C          3.69496       16.62551        3.48649
N          4.28579       17.17993        2.40872
C          3.89193       18.34008        1.95833
C          4.54753       18.87406        0.72967
C          2.87328       19.06517        2.63875
C          2.51677       20.46356        2.25845
N          2.23186       18.51863        3.63523
C          2.56845       17.28861        4.07520
C          1.82267       16.71304        5.13992
C          0.63685       17.27345        5.67873
S         -0.11365       16.57306        7.10545
C         -1.37051       17.73406        7.02308
C         -2.49883       18.12836        7.77152
S         -3.32378       17.67526        9.20009
C         -0.09436       18.34312        5.17932
C         -1.24477       18.59329        5.90980
C         -2.35293       19.54807        5.91526
C         -2.67287       20.51357        5.03019
C         -2.04092       20.73236        3.74218
C         -1.65633       19.65950        2.93404
C         -1.04191       19.88457        1.71409
C         -0.62890       18.71177        0.86662
F         -0.30508       17.63445        1.59322
F         -1.60761       18.32446        0.02904
F          0.43676       18.98443        0.09507
C         -0.82244       21.17410        1.24891
C         -1.24045       22.23889        2.03638
C         -0.97968       23.63683        1.54472
F         -1.20594       23.76860        0.22967
F         -1.73033       24.55876        2.15984
F          0.30356       23.99821        1.74199
C         -1.84438       22.03011        3.26473
C         -3.08753       19.24260        7.13935
C         -4.20050       19.71667        7.81600
C         -4.47270       18.98775        8.96613
C         -5.51287       19.19182        9.91705
C         -5.61523       18.34221       11.03921
N         -4.81056       17.31455       11.31350
S         -5.28853       16.62805       12.68609
N         -6.53105       17.58170       13.01307
C         -6.63870       18.50485       12.04622
C         -6.48673       20.21873        9.83427
N         -6.47716       21.07580        8.78938
C         -7.36880       22.02497        8.71727
C         -7.31309       22.93845        7.53787
C         -8.36347       22.18085        9.73473
C         -9.38075       23.27019        9.66996
N         -8.40744       21.36968       10.75045
C         -7.49511       20.36925       10.84802
C         -7.57696       19.52172       11.94835
H         14.79453      -12.78681        0.67819
H         16.27253      -12.12605       -1.34773
H         17.70110       -8.21482       -3.16945
H         15.55497      -11.15764       -3.38995
H         18.35375      -13.52097       -5.60558
H         19.54727       -9.74248       -3.98668
H         16.89204       -5.94949       -2.10509
H         18.94377       -4.74331       -3.54074
H         19.85394       -3.22276       -3.61094
H         18.60221       -3.54850       -4.80750
H         19.32909       -0.78681       -3.84953
H         17.89517        0.26226       -3.80989
H         17.98103       -1.10371       -4.93447
H         16.66167        0.93335       -1.39918
H         16.74317        5.41394       -1.67916
H         17.91161        4.74727       -3.84654
H         20.88780        1.68568       -3.56663
H         18.21316        2.37900       -0.29689
H         14.84365        6.78887       -0.37404
H         15.72823        8.94109       -1.81240
H         16.11805       10.59406       -1.29843
H         14.95344       10.33097       -2.59536
H         14.93182       12.62394       -0.30771
H         13.24246       13.15155       -0.29410
H         13.96677       12.47348       -1.77071
H         10.72412       12.16576        0.58726
H          8.12629       15.81416        0.26058
H          9.10817       12.58390       -1.08565
H         12.34434       14.06828       -3.46249
H         10.34972       16.65891       -0.70220
H          6.03788       16.03117        1.93244
H          5.26939       18.15388        0.35560
H          5.05353       19.81394        0.94566
H          3.79871       19.06293       -0.03805
H          3.38460       21.11208        2.36994
H          1.71883       20.82921        2.89920
H          2.20082       20.50693        1.21812
H          0.25556       18.88928        4.32551
H         -3.46617       21.20111        5.29149
H         -1.85405       18.65030        3.25850
H         -0.34989       21.34846        0.29495
H         -2.15353       22.87431        3.86252
H         -4.81134       20.55250        7.53285
H         -6.49890       22.64222        6.88268
H         -7.15641       23.96633        7.86203
H         -8.25018       22.90016        6.98443
H         -8.89324       24.24380        9.65229
H        -10.02820       23.20680       10.53952
H         -9.98035       23.17685        8.76571
H         -8.34420       19.66341       12.68953
