218
d4a5.out	Energy:  -12347.0802698
C         32.47608        9.21599       -5.27436
S         30.87609        9.71716       -5.70820
C         30.23905        8.82377       -4.39486
C         28.97908        8.60871       -3.78609
S         27.33682        9.04318       -4.00133
C         32.51635        8.40045       -4.18443
C         31.23008        8.14668       -3.66912
C         30.59727        7.45615       -2.54849
C         31.10866        6.69490       -1.55918
C         32.46856        6.21156       -1.43738
C         33.06053        6.10363       -0.17575
C         34.35645        5.63515       -0.04646
C         34.99033        5.57416        1.31702
F         34.09463        5.37265        2.29450
F         35.90131        4.59805        1.42342
F         35.62761        6.72082        1.62278
C         35.09862        5.25288       -1.15696
C         34.49498        5.32532       -2.40398
C         35.24594        4.92163       -3.64361
F         36.41891        4.33328       -3.38883
F         34.54360        4.06989       -4.40827
F         35.51460        5.98670       -4.42484
C         33.19828        5.79148       -2.55079
C         29.17791        7.80310       -2.65559
C         28.00092        7.53210       -1.97256
C         26.89387        8.12947       -2.56316
C         25.53865        8.09189       -2.13919
C         24.55433        8.81328       -2.84131
N         24.80228        9.54013       -3.92971
S         23.48400       10.21446       -4.53194
N         22.47144        9.56934       -3.33886
C         23.17051        8.80215       -2.45442
C         25.06821        7.34905       -1.01534
N         25.92822        6.57458       -0.33198
C         25.53559        5.93075        0.74049
C         26.52102        5.03778        1.41746
C         24.21980        6.09985        1.22912
C         23.77279        5.52341        2.53198
N         23.34372        6.78942        0.53563
C         23.70089        7.38913       -0.60774
C         22.69597        8.09465       -1.35946
C         21.31394        8.02940       -0.99066
S         20.11678        9.21091       -1.54687
C         18.86725        8.38732       -0.71272
C         17.49491        8.54146       -0.46557
S         16.21063        9.61618       -0.84249
C         20.71827        7.07277       -0.19205
C         19.34543        7.24349       -0.04303
C         18.22825        6.62030        0.66262
C         18.18948        5.54186        1.47192
C         19.28370        4.63148        1.74930
C         19.46067        4.13335        3.04273
C         20.51712        3.28595        3.32754
C         20.73899        2.79195        4.73118
F         19.64863        2.89074        5.50144
F         21.12303        1.50753        4.76805
F         21.70849        3.49047        5.35410
C         21.42218        2.90951        2.34357
C         21.22819        3.38307        1.05308
C         22.18974        2.97001       -0.02783
F         23.44412        2.83168        0.43268
F         21.85988        1.78683       -0.57661
F         22.24902        3.85028       -1.03556
C         20.16427        4.21506        0.74802
C         17.08418        7.48660        0.37646
C         15.74095        7.54796        0.69681
C         15.10242        8.64684        0.12313
C         13.75518        9.05174        0.26330
C         13.31793       10.26505       -0.30738
N         14.09112       11.05405       -1.04609
S         13.31662       12.35654       -1.56972
N         11.86341       11.93478       -0.80695
C         11.97560       10.74799       -0.14252
C         12.75841        8.31085        0.97134
N         13.06822        7.09913        1.45924
C         12.18538        6.41665        2.15074
C         12.57198        5.05252        2.61709
C         10.92155        6.97618        2.43872
C          9.93303        6.29652        3.32786
N         10.57831        8.13419        1.92112
C         11.43766        8.81729        1.15406
C         11.00749       10.06552        0.57687
C          9.66574       10.53888        0.74597
S          9.22954       12.24365        0.53775
C          7.59323       11.90315        0.91254
C          6.39268       12.60781        1.09257
S          5.80215       14.21781        1.03219
C          8.55847        9.79124        1.09243
C          7.38345       10.53457        1.16917
C          5.97724       10.33946        1.51534
C          5.30557        9.22478        1.87054
C          5.82433        7.87078        1.87058
C          5.46405        6.98732        2.89142
C          5.97611        5.70168        2.91685
C          5.63059        4.76608        4.04312
F          4.53408        5.13551        4.71622
F          5.41944        3.51090        3.62005
F          6.62559        4.69289        4.94903
C          6.85391        5.25786        1.93636
C          7.18723        6.12770        0.90680
C          8.12359        5.65163       -0.17024
F          9.09420        4.85971        0.31575
F          7.48950        4.92985       -1.11238
F          8.73567        6.65499       -0.81164
C          6.66705        7.40955        0.85610
C          5.39902       11.68333        1.47495
C          4.17282       12.27974        1.70638
C          4.20487       13.66082        1.51998
C          3.16605       14.60022        1.71743
C          3.42418       15.97910        1.58081
N          4.59607       16.47530        1.19629
S          4.58773       18.07652        1.11626
N          2.97368       18.20261        1.61746
C          2.42189       16.97522        1.83812
C          1.82484       14.25873        2.07406
N          1.47042       12.96472        2.11533
C          0.26055       12.61907        2.48971
C         -0.08986       11.16857        2.45534
C         -0.65869       13.60244        2.91376
C         -1.99526       13.25218        3.48043
N         -0.35260       14.87719        2.81855
C          0.84940       15.25729        2.36789
C          1.12994       16.66634        2.23866
C          0.12776       17.65308        2.50539
S          0.52594       19.35246        2.81573
C         -1.13130       19.73946        3.01745
C         -1.91211       20.85039        3.36537
S         -1.72293       22.51286        3.74535
C         -1.23799       17.45450        2.57297
C         -1.96023       18.61374        2.83692
C         -3.34559       19.01817        3.06138
C         -4.48924       18.30307        3.01350
C         -4.62985       16.93065        2.56983
C         -5.53673       16.07971        3.20731
C         -5.66702       14.76356        2.79913
C         -6.60763       13.83496        3.51749
F         -7.54835       14.47994        4.21886
F         -7.25020       13.00733        2.68034
F         -5.95403       13.04752        4.39410
C         -4.90720       14.25621        1.75308
C         -4.02702       15.11100        1.10274
C         -3.21473       14.58036       -0.04706
F         -2.82208       13.31102        0.15132
F         -3.90842       14.58071       -1.20044
F         -2.10401       15.29234       -0.27490
C         -3.90001       16.43472        1.48608
C         -3.26081       20.43279        3.42284
C         -4.12215       21.45344        3.77425
C         -3.46156       22.66249        3.99463
C         -4.01131       23.90538        4.37866
C         -3.16495       25.02670        4.54450
N         -1.85337       25.00769        4.35540
S         -1.16852       26.43855        4.62292
N         -2.64448       27.19458        5.02464
C         -3.68490       26.30822        4.94238
C         -5.40435       24.12722        4.62769
N         -6.28098       23.11893        4.49482
C         -7.55754       23.33096        4.72845
C         -8.48523       22.17077        4.56367
C         -8.02408       24.60803        5.11770
C         -9.46792       24.87439        5.38837
N         -7.18800       25.61313        5.25496
C         -5.88115       25.41361        5.02122
C         -5.00819       26.51529        5.17957
H         33.30168        9.56074       -5.86409
H         33.43868        8.02758       -3.77810
H         30.44225        6.41701       -0.75307
H         32.50571        6.39825        0.70247
H         36.10900        4.89131       -1.04900
H         32.73714        5.80097       -3.52619
H         27.90046        6.93885       -1.08439
H         21.46787        9.65175       -3.35368
H         27.46021        5.04776        0.87221
H         26.13629        4.01945        1.44800
H         26.69319        5.36553        2.44154
H         23.91522        4.44453        2.54136
H         22.72392        5.75554        2.69666
H         24.35988        5.94312        3.34766
H         21.30974        6.30246        0.25969
H         17.26811        5.34836        2.00517
H         18.77751        4.42412        3.82657
H         22.24705        2.25442        2.57667
H         20.00020        4.53053       -0.27003
H         15.19871        6.85994        1.31648
H         10.99942       12.43375       -0.94192
H         13.56972        4.81265        2.26117
H         11.86823        4.31578        2.23293
H         12.55388        5.00173        3.70487
H          9.66979        5.31978        2.92581
H          9.03819        6.90671        3.41720
H         10.35929        6.14492        4.31832
H          8.65608        8.74361        1.29335
H          4.29089        9.34231        2.22727
H          4.79468        7.31555        3.67234
H          7.25561        4.25715        1.96933
H          6.89684        8.05310        0.02199
H          3.26836       11.78677        2.00683
H          2.46066       19.06884        1.61506
H         -0.34037       10.81249        3.45365
H          0.74979       10.59816        2.06888
H         -0.95531       11.01108        1.81358
H         -2.57938       12.68897        2.75470
H         -2.52945       14.15860        3.75273
H         -1.87697       12.63056        4.36660
H         -1.64632       16.47195        2.44745
H         -5.39489       18.78180        3.36173
H         -6.12880       16.44840        4.03144
H         -5.00986       13.22698        1.44659
H         -3.24940       17.09537        0.93583
H         -5.18726       21.38489        3.88809
H         -2.73560       28.16248        5.27436
H         -7.92019       21.28899        4.27543
H         -9.22808       22.38519        3.79648
H         -9.01227       21.96996        5.49528
H         -9.82419       24.24473        6.20258
H        -10.06743       24.65478        4.50608
H         -9.59456       25.91834        5.65963
H         -5.41235       27.46735        5.47883
