258
d5a5.out	Energy:  -10586.8706850
C        -13.20054       -5.78135      -16.66109
S        -14.85395       -5.35436      -16.39553
C        -14.39663       -4.11104      -15.24195
C        -15.22945       -3.28908      -14.49163
O        -16.58669       -3.25991      -14.46124
C        -17.36434       -3.50072      -15.61508
C        -17.49663       -2.25856      -16.50999
C        -16.17234       -1.90227      -17.18010
C        -18.57452       -2.51147      -17.56065
C        -14.59371       -2.42346      -13.57445
C        -15.22584       -1.51838      -12.69643
C        -12.34000       -5.03443      -15.94415
C        -12.98318       -4.05998      -15.12335
C        -12.36179       -3.15144      -14.25232
O        -10.99293       -3.08470      -14.13548
C        -10.31632       -2.51546      -15.24471
C        -10.41756       -0.98454      -15.27889
C         -9.69192       -0.38558      -14.07933
C         -9.84759       -0.45302      -16.59038
C        -13.18556       -2.36207      -13.47093
S        -12.68056       -1.19553      -12.26793
C        -14.34936       -0.79042      -11.93084
C        -14.66544        0.20565      -10.96366
C        -15.97852        0.60200      -10.64559
N        -17.09291        0.11605      -11.19045
S        -18.41218        0.80641      -10.60390
N        -17.56105        1.83236       -9.56487
C        -16.21588        1.63200       -9.66555
C        -13.62949        0.86807      -10.25632
N        -12.37022        0.48924      -10.51610
C        -11.36900        1.04382       -9.87624
C         -9.99278        0.56738      -10.19652
C        -11.61772        2.04902       -8.91122
C        -10.50491        2.68658       -8.14730
N        -12.84242        2.45394       -8.65195
C        -13.87396        1.89558       -9.30003
C        -15.20941        2.31123       -8.99842
C        -15.46743        3.38648       -8.07466
S        -16.94429        3.42018       -7.10468
C        -16.50622        4.95865       -6.41444
C        -17.27451        5.67792       -5.52107
O        -18.45216        5.14348       -5.07777
C        -19.64082        5.90388       -5.22406
C        -20.39789        5.58621       -6.52599
C        -19.63681        6.09003       -7.75035
C        -20.67486        4.08912       -6.63094
C        -16.73175        6.90084       -5.07583
C        -17.27754        7.77157       -4.11058
C        -14.69282        4.48064       -7.82470
C        -15.25687        5.39385       -6.90116
C        -14.73430        6.64457       -6.49937
O        -13.57371        6.98482       -7.11351
C        -12.62353        7.84707       -6.52297
C        -11.71342        7.14163       -5.50139
C        -12.44900        6.79806       -4.20915
C        -11.10912        5.88439       -6.12106
C        -15.49798        7.38107       -5.60386
S        -15.13480        8.96289       -4.92833
C        -16.55648        8.92187       -3.91258
C        -16.82195        9.99772       -3.02193
C        -15.92133       11.07809       -2.93703
N        -14.84684       11.20142       -3.71029
S        -14.03471       12.55937       -3.42267
N        -15.08014       13.05267       -2.16531
C        -16.10433       12.16045       -2.00833
C        -17.97712       10.08251       -2.19349
N        -18.94090        9.14972       -2.26788
C        -20.00985        9.24726       -1.50725
C        -21.04278        8.17524       -1.64007
C        -20.17448       10.32927       -0.61630
C        -21.38160       10.49680        0.24385
N        -19.23661       11.24853       -0.53329
C        -18.13756       11.16472       -1.28123
C        -17.16458       12.20387       -1.12172
C        -17.35290       13.18707       -0.09464
S        -18.88305       13.28806        0.74077
C        -18.30343       14.65038        1.67663
C        -19.07572       15.36954        2.57102
O        -20.34730       14.93953        2.83018
C        -21.42455       15.82383        2.56938
C        -21.82921       15.83198        1.08608
C        -23.28012       16.28799        0.94996
C        -20.91112       16.73591        0.26672
C        -18.46494       16.46888        3.21115
C        -18.98404       17.34307        4.18513
C        -16.44758       14.10648        0.37537
C        -16.95258       14.95373        1.38643
C        -16.32995       16.03698        2.04111
O        -15.04615       16.43997        1.79080
C        -13.99825       15.51319        2.02381
C        -13.31105       15.71472        3.38547
C        -12.85298       17.16109        3.54443
C        -14.22619       15.30618        4.53667
C        -17.11223       16.77580        2.90633
S        -16.54933       18.16669        3.79985
C        -18.09992       18.31299        4.60134
C        -18.31781       19.35335        5.54582
C        -17.27351       20.24645        5.86331
N        -16.04089       20.14602        5.37516
S        -15.05653       21.27484        5.94595
N        -16.26971       22.02214        6.88062
C        -17.45123       21.34738        6.77131
C        -19.54773       19.56779        6.23434
N        -20.59637       18.75325        6.02956
C        -21.71292       18.93386        6.69966
C        -22.84029       17.99505        6.41432
C        -21.82958       19.96763        7.65474
C        -23.05595       20.17800        8.47728
N        -20.82340       20.79350        7.84158
C        -19.69013       20.64558        7.15531
C        -18.65623       21.60518        7.39871
C        -18.91308       22.71924        8.26271
S        -20.31589       22.70249        9.30571
C        -19.85457       24.24822        9.98495
C        -20.53249       24.94937       10.95955
O        -21.64014       24.41201       11.56315
C        -22.87819       25.02943       11.23879
C        -23.93279       24.57525       12.24871
C        -23.58598       25.07724       13.64782
C        -25.31147       25.06763       11.81950
C        -19.99787       26.19909       11.33775
C        -20.50511       27.05269       12.33315
C        -18.18556       23.87635        8.39726
C        -18.69286       24.76158        9.36891
C        -18.16669       26.02658        9.72208
O        -17.03487       26.36916        9.04535
C        -16.65575       27.72545        8.93845
C        -17.64250       28.54813        8.10015
C        -17.30346       30.03073        8.20188
C        -17.62768       28.06810        6.65138
C        -18.82887       26.72544       10.71628
S        -18.41200       28.28863       11.43557
C        -19.79052       28.21452       12.49857
C        -20.06641       29.27734       13.39580
C        -21.19876       29.31646       14.23815
N        -22.15837       28.40182       14.30569
S        -23.29581       28.77855       15.38115
N        -22.54774       30.24224       15.83324
C        -21.39235       30.43806       15.12619
C        -19.17832       30.38363       13.47147
N        -18.09656       30.37392       12.68203
C        -17.24618       31.37656       12.73220
C        -16.04566       31.30790       11.84697
C        -17.47954       32.46760       13.60128
C        -16.54235       33.62916       13.66750
N        -18.53564       32.50239       14.38843
C        -19.40049       31.47824       14.35557
C        -20.53335       31.49405       15.19947
H        -12.98272       -6.58007      -17.34265
H        -18.34955       -3.76985      -15.22197
H        -16.98596       -4.34340      -16.20030
H        -17.80351       -1.42264      -15.87195
H        -16.30351       -1.04131      -17.83189
H        -15.81339       -2.73684      -17.77949
H        -15.41485       -1.65384      -16.44009
H        -18.29564       -3.35316      -18.19097
H        -18.69826       -1.63530      -18.19215
H        -19.52947       -2.73421      -17.09075
H        -16.29143       -1.41078      -12.62944
H        -11.27438       -5.17672      -15.95652
H        -10.70456       -2.92658      -16.18549
H         -9.27227       -2.81957      -15.12833
H        -11.47906       -0.71883      -15.21614
H        -10.05641       -0.85080      -13.16799
H         -9.86985        0.68495      -14.01794
H         -8.62055       -0.55960      -14.15915
H        -10.39716       -0.84782      -17.44238
H         -8.80252       -0.73871      -16.69271
H         -9.91078        0.63201      -16.61425
H        -17.98380        2.52450       -8.96564
H        -10.05690       -0.24050      -10.91825
H         -9.49469        0.21152       -9.29612
H         -9.39686        1.37796      -10.61348
H         -9.82010        3.19298       -8.82625
H         -9.93956        1.93261       -7.60156
H        -10.91314        3.40610       -7.44563
H        -19.43145        6.97649       -5.18396
H        -20.26594        5.62802       -4.36855
H        -21.35123        6.12445       -6.46519
H        -19.40401        7.14840       -7.65065
H        -20.23614        5.95365       -8.64797
H        -18.70560        5.54467       -7.87566
H        -19.73911        3.53718       -6.58475
H        -21.17648        3.85816       -7.56784
H        -21.30575        3.75977       -5.80891
H        -18.15604        7.56510       -3.53025
H        -13.75252        4.64918       -8.31360
H        -13.09230        8.72314       -6.06776
H        -12.01514        8.18101       -7.36977
H        -10.91121        7.85049       -5.26661
H        -11.75486        6.36991       -3.48917
H        -12.89386        7.68837       -3.77159
H        -13.23626        6.07043       -4.39483
H        -10.43170        5.40246       -5.41984
H        -11.90330        5.18647       -6.37626
H        -10.55813        6.12941       -7.02638
H        -15.12805       14.00726       -1.85081
H        -20.71794        7.44627       -2.37692
H        -21.99470        8.60206       -1.95287
H        -21.19536        7.67664       -0.68397
H        -21.50570        9.63429        0.89712
H        -22.27717       10.58541       -0.36998
H        -21.26558       11.39273        0.84645
H        -21.19437       16.84349        2.89371
H        -22.24829       15.43312        3.17418
H        -21.73728       14.80531        0.71591
H        -23.40068       17.28981        1.35753
H        -23.94977       15.61601        1.48172
H        -23.57281       16.30634       -0.09696
H        -19.87629       16.41205        0.34073
H        -20.97601       17.76334        0.62119
H        -21.20049       16.71435       -0.78165
H        -19.96337       17.27150        4.61784
H        -15.43032       14.17151        0.03498
H        -13.26727       15.68344        1.22473
H        -14.36433       14.48309        1.96051
H        -12.43411       15.05531        3.38372
H        -13.71117       17.82655        3.49738
H        -12.15958       17.43231        2.75153
H        -12.35772       17.29766        4.50246
H        -14.59847       14.29280        4.39638
H        -13.68303       15.34532        5.47801
H        -15.07337       15.98218        4.60594
H        -16.07843       22.69006        7.60879
H        -22.53580       17.27845        5.65687
H        -23.71117       18.54492        6.06007
H        -23.12533       17.46018        7.31908
H        -23.91271       20.38556        7.83734
H        -22.89217       21.01643        9.14771
H        -23.28004       19.28593        9.06041
H        -23.17292       24.72574       10.22239
H        -22.78439       26.12227       11.25506
H        -23.92436       23.48071       12.25769
H        -24.29577       24.69136       14.37583
H        -23.61277       26.16506       13.68421
H        -22.58977       24.74174       13.92356
H        -25.33026       26.15510       11.78616
H        -26.06668       24.73274       12.52615
H        -25.56966       24.68805       10.83349
H        -21.36127       26.82393       12.93802
H        -17.34289       24.14884        7.78827
H        -15.68048       27.69330        8.44312
H        -16.52889       28.17390        9.92871
H        -18.64504       28.38956        8.51081
H        -16.27942       30.21129        7.88131
H        -17.41645       30.37231        9.22741
H        -17.96982       30.61203        7.56951
H        -16.65681       28.25959        6.19818
H        -18.38821       28.58426        6.07030
H        -17.82624       26.99964        6.60721
H        -22.91230       30.87685       16.51991
H        -16.03882       30.35333       11.32924
H        -15.13397       31.40736       12.43384
H        -16.06467       32.11490       11.11516
H        -15.55471       33.30295       13.99107
H        -16.92731       34.35896       14.37365
H        -16.43959       34.09258       12.68737
H        -20.68788       32.32644       15.86541
