198
d5a9.out	Energy:  -16802.2285274
C        -11.01742        1.39066       18.41513
S        -11.40705        0.22688       17.19551
C        -11.42476        1.46707       15.95246
C        -11.67924        1.33691       14.59422
O        -11.97594        0.22018       13.88502
C        -11.99519       -1.04430       14.51344
C        -12.29160       -2.10522       13.44731
C        -13.66085       -1.85892       12.81955
C        -11.19569       -2.11060       12.38480
C        -11.62905        2.52052       13.83276
C        -11.85790        2.59682       12.43537
C        -10.90463        2.64213       17.93400
C        -11.13118        2.72618       16.52837
C        -11.07776        3.90866       15.76829
O        -10.78289        5.02847       16.47720
C        -10.69846        6.28129       15.82961
C        -10.32308        7.32785       16.88157
C         -8.91351        7.06814       17.40537
C        -10.43670        8.72697       16.28516
C        -11.33122        3.77995       14.41134
S        -11.34708        5.02005       13.16908
C        -11.74470        3.85409       11.92384
C        -11.89452        4.29522       10.57635
C        -12.26810        3.54093        9.48569
C        -12.32634        4.22813        8.26802
C        -12.00029        5.56534        8.32538
Se       -11.56748        6.07810       10.08136
C        -11.96141        6.49729        7.24791
S        -11.45129        8.14204        7.56743
C        -11.64176        8.59219        5.88245
C        -11.39553        9.81405        5.27850
O        -10.96536       10.96991        5.84013
C        -10.83080       11.07647        7.24229
C        -10.49443       12.53295        7.58177
C         -9.18039       12.94161        6.92167
C        -11.63333       13.45326        7.15032
C        -11.60892        9.87853        3.88689
C        -11.38836       11.02569        3.08673
C        -12.26234        6.31411        5.93103
C        -12.09143        7.47411        5.13527
C        -12.32501        7.54572        3.74642
O        -12.76278        6.39118        3.18436
C        -12.96002        6.30850        1.78756
C        -13.40692        4.88147        1.46138
C        -14.77431        4.60267        2.07859
C        -13.43591        4.67990       -0.05007
C        -12.07685        8.76750        3.14087
S        -12.24978        9.22085        1.45235
C        -11.67618       10.84491        1.76722
C        -11.54656       11.78022        0.69826
C        -10.83879       12.96109        0.72813
C        -10.85283       13.70259       -0.45769
C        -11.58096       13.15638       -1.49095
Se       -12.35499       11.52104       -0.97962
C        -11.74888       13.71562       -2.79236
S        -13.03163       13.14741       -3.84102
C        -12.58165       14.28238       -5.10378
C        -13.16768       14.48644       -6.34305
O        -14.24053       13.86801       -6.89098
C        -15.01121       12.96175       -6.12943
C        -16.22567       12.54755       -6.96806
C        -17.08677       13.76591       -7.29127
C        -15.77386       11.84485       -8.24536
C        -12.57618       15.47017       -7.16193
C        -13.03225       15.83995       -8.44993
C        -11.01855       14.70160       -3.38481
C        -11.45605       15.03748       -4.68881
C        -10.85347       16.00808       -5.51430
O         -9.77506       16.62450       -4.96769
C         -9.02252       17.55059       -5.72390
C         -7.83878       18.00202       -4.86495
C         -6.86900       18.82403       -5.70740
C         -8.33354       18.79983       -3.66199
C        -11.43454       16.20671       -6.75578
S        -10.96726       17.33274       -8.01977
C        -12.29276       16.81633       -9.04591
C        -12.48621       17.41881      -10.31981
C        -11.67620       18.35254      -10.92347
C        -12.09730       18.79677      -12.18160
C        -13.27054       18.24368      -12.64269
Se       -13.96979       17.01095      -11.40525
C        -13.92411       18.52736      -13.87651
S        -15.50327       17.84392      -14.20262
C        -15.58869       18.63225      -15.76881
C        -16.60566       18.59413      -16.70924
O        -17.79301       17.93960      -16.65403
C        -18.13151       17.16742      -15.52040
C        -19.51176       16.55434      -15.76913
C        -19.44799       15.56372      -16.92818
C        -20.01701       15.87960      -14.49822
C        -16.39530       19.33317      -17.89066
C        -17.31312       19.42236      -18.96745
C        -13.49405       19.30466      -14.91044
C        -14.40609       19.38227      -15.99103
C        -14.19295       20.11712      -17.17507
O        -13.00769       20.77156      -17.22870
C        -12.65701       21.52604      -18.37041
C        -11.25357       22.10192      -18.15093
C        -11.24097       23.01864      -16.93065
C        -10.23631       20.97406      -17.99893
C        -15.20944       20.07604      -18.11592
S        -15.29295       20.86227      -19.68252
C        -16.88057       20.19622      -20.00076
C        -17.53960       20.49899      -21.23275
C        -18.78742       20.08643      -21.63074
C        -19.18626       20.53493      -22.90507
C        -18.27502       21.31067      -23.55158
Se       -16.73633       21.57040      -22.55251
H        -10.89908        1.04812       19.42414
H        -11.02410       -1.25096       14.98053
H        -12.77115       -1.07197       15.28893
H        -12.30061       -3.07471       13.95717
H        -13.68308       -0.87836       12.35180
H        -14.44164       -1.89861       13.57566
H        -13.87264       -2.61168       12.06422
H        -11.13995       -1.13740       11.90457
H        -11.40513       -2.86234       11.62783
H        -10.22906       -2.33063       12.83230
H        -12.09223        1.72865       11.84878
H        -10.67100        3.50556       18.52849
H        -11.66382        6.53828       15.37532
H         -9.93432        6.25684       15.04282
H        -11.03098        7.22857       17.71078
H         -8.18458        7.19593       16.60763
H         -8.83700        6.05298       17.78552
H         -8.67231        7.76045       18.20833
H         -9.76785        8.83022       15.43351
H        -10.16771        9.47423       17.02735
H        -11.45199        8.92405       15.94943
H        -12.50158        2.49319        9.56736
H        -12.60366        3.74582        7.34637
H        -10.02881       10.41725        7.59857
H        -11.76713       10.78971        7.73669
H        -10.38166       12.58848        8.66990
H         -9.26284       12.84470        5.84255
H         -8.36636       12.30685        7.26422
H         -8.93949       13.97401        7.16293
H        -11.79043       13.37201        6.07799
H        -11.39798       14.48693        7.39141
H        -12.55738       13.18240        7.65626
H        -11.03649       11.95134        3.50160
H        -12.59633        5.38269        5.51394
H        -12.02545        6.53675        1.25991
H        -13.72968        7.02087        1.46496
H        -12.67440        4.19860        1.90392
H        -14.74903        4.79963        3.14699
H        -15.53017        5.24122        1.62606
H        -15.05878        3.56512        1.92126
H        -14.13275        5.37650       -0.51096
H        -13.75273        3.66762       -0.28768
H        -12.45148        4.84364       -0.48197
H        -10.29926       13.28189        1.60265
H        -10.34150       14.64482       -0.55538
H        -15.34773       13.43795       -5.20005
H        -14.41551       12.07585       -5.87434
H        -16.80877       11.84738       -6.35999
H        -16.50832       14.48894       -7.86020
H        -17.43480       14.24285       -6.37770
H        -17.95270       13.47279       -7.87955
H        -15.15484       12.51400       -8.83686
H        -16.63463       11.54897       -8.83985
H        -15.19443       10.95537       -8.00867
H        -13.89014       15.38821       -8.92025
H        -10.17262       15.17918       -2.92744
H         -9.63845       18.41782       -5.99338
H         -8.65719       17.07823       -6.64446
H         -7.33213       17.10039       -4.50567
H         -7.36814       19.70389       -6.10764
H         -6.48596       18.23805       -6.53957
H         -6.02859       19.15098       -5.10052
H         -8.80848       19.72236       -3.98969
H         -7.50450       19.05205       -3.00526
H         -9.05905       18.21738       -3.10049
H        -10.77806       18.71066      -10.44743
H        -11.54790       19.52887      -12.74793
H        -18.16038       17.80119      -14.62506
H        -17.39409       16.37019      -15.36413
H        -20.18928       17.37060      -16.03996
H        -18.81279       14.71918      -16.66887
H        -19.03797       16.04711      -17.81090
H        -20.44120       15.18980      -17.16453
H        -19.33567       15.08801      -14.19414
H        -20.99773       15.44331      -14.66963
H        -20.09558       16.59596      -13.68392
H        -18.25997       18.91640      -18.94874
H        -12.54985       19.81557      -14.92473
H        -13.37404       22.34313      -18.52044
H        -12.65881       20.88789      -19.26289
H        -11.00707       22.68877      -19.04235
H        -11.53460       22.46112      -16.04540
H        -11.93587       23.84447      -17.06490
H        -10.24563       23.42649      -16.77286
H        -10.49851       20.35010      -17.14866
H         -9.24034       21.38022      -17.84042
H        -10.21784       20.35213      -18.89115
H        -19.41441       19.46763      -21.01250
H        -20.14260       20.28197      -23.33140
H        -18.38446       21.75150      -24.52599
