314
d6a12.out	Energy:  -10396.8038237
C         42.63420       25.60461       -5.86683
S         41.40467       24.85967       -4.90212
C         40.53960       24.45311       -6.32432
C         39.30041       23.85698       -6.67383
S         37.96565       23.10909       -5.91210
C         42.39509       25.53822       -7.20541
C         41.19299       24.86140       -7.49003
C         40.36056       24.51924       -8.64295
C         40.56315       24.71401       -9.96028
C         41.78013       25.19035      -10.59537
C         43.03487       24.73267      -10.19082
C         44.18042       25.17630      -10.82341
C         44.09504       26.08502      -11.86591
C         42.85324       26.53140      -12.28907
C         41.70470       26.07796      -11.67009
C         39.16311       23.91071       -8.06259
C         37.96527       23.34379       -8.50455
C         37.19042       22.86147       -7.47041
C         35.90622       22.21383       -7.53715
C         35.15901       22.23326       -8.72508
C         33.95124       21.57861       -8.75634
N         33.03510       21.51478       -9.78852
C         33.17571       22.05613      -11.11615
C         33.68924       21.01493      -12.12309
C         33.63082       21.59639      -13.53276
C         35.10732       20.56372      -11.78573
C         31.90836       20.83504       -9.39942
O         30.96494       20.64663      -10.14184
C         35.37968       21.55789       -6.41704
C         34.17025       20.89720       -6.45515
C         33.44075       20.87322       -7.63982
C         32.14090       20.36150       -7.99910
C         31.29586       19.54414       -7.29373
C         29.90268       19.23529       -7.49267
C         28.92139       19.71243       -8.35696
C         27.63225       19.23078       -8.26205
C         31.72335       18.69020       -6.13913
O         32.83457       18.51281       -5.68316
N         30.61617       18.00015       -5.71041
C         30.67068       17.06730       -4.61335
C         30.33243       17.68700       -3.24413
C         31.21576       18.89951       -2.96149
C         28.85806       18.06412       -3.12483
C         29.52515       18.29600       -6.50148
C         28.24870       17.79720       -6.41844
C         27.27446       18.26012       -7.31491
C         25.93776       17.73223       -7.24897
S         25.55649       16.46329       -6.09140
C         23.94271       16.41406       -6.65163
C         22.74057       15.74043       -6.34056
S         22.18066       14.52731       -5.27488
C         24.83798       18.07105       -8.00908
C         23.70197       17.31971       -7.69452
C         22.29198       17.23043       -8.07816
C         21.59221       17.90671       -9.00955
C         22.12175       18.82441      -10.00366
C         23.29365       18.53840      -10.70570
C         23.77252       19.41736      -11.65840
C         23.09242       20.59459      -11.92615
C         21.91498       20.87761      -11.25228
C         21.42523       19.99492      -10.30942
C         21.72864       16.22809       -7.17442
C         20.49998       15.60554       -6.94635
C         20.55872       14.65410       -5.94837
C         19.51285       13.80775       -5.43946
C         19.80978       12.85963       -4.44974
C         18.80390       12.06095       -3.96579
N         18.88864       11.04693       -3.03473
C         20.04923       10.65756       -2.27454
C         20.10464       11.33424       -0.89605
C         21.25636       10.74418       -0.08748
C         20.25653       12.84747       -1.02101
C         17.67568       10.42500       -2.88267
O         17.49613        9.51668       -2.09665
C         18.19617       13.89733       -5.91493
C         17.18878       13.09135       -5.42637
C         17.46895       12.16213       -4.42840
C         16.70126       11.13042       -3.77601
C         15.36379       10.83753       -3.85774
C         14.64196        9.65705       -3.45519
C         15.02996        8.40640       -2.98398
C         14.07024        7.45038       -2.73047
C         14.31492       11.78892       -4.34101
O         14.42529       12.94834       -4.68674
N         13.10265       11.15196       -4.22990
C         11.86418       11.80939       -4.56246
C         11.38585       11.57507       -6.00819
C         12.49443       11.89398       -7.00773
C         10.86120       10.15849       -6.22704
C         13.26595        9.88478       -3.70394
C         12.30393        8.94193       -3.43145
C         12.70489        7.69402       -2.92805
C         11.73162        6.67728       -2.62826
S         12.23272        5.20119       -1.81711
C         10.62554        4.62004       -1.84988
C          9.89796        3.50286       -1.38021
S         10.18522        2.03456       -0.55549
C         10.37905        6.67487       -2.90005
C          9.74027        5.50511       -2.48040
C          8.38987        4.94240       -2.42439
C          7.22637        5.43634       -2.88768
C          7.06601        6.61726       -3.72202
C          7.90167        6.84218       -4.81677
C          7.72675        7.95597       -5.61585
C          6.72347        8.86829       -5.33061
C          5.87650        8.64556       -4.25658
C          6.03464        7.52200       -3.46801
C          8.54682        3.68448       -1.69507
C          7.75009        2.61943       -1.27061
C          8.47254        1.63385       -0.62897
C          8.01257        0.39319       -0.06418
C          8.91382       -0.42989        0.62769
C          8.46946       -1.62654        1.13140
N          9.17778       -2.55625        1.86256
C         10.58292       -2.49568        2.16929
C         11.46942       -2.78576        0.94856
C         12.93568       -2.63194        1.34164
C         11.19519       -4.18660        0.40996
C          8.36563       -3.59055        2.25163
O          8.76654       -4.54277        2.88888
C          6.67981       -0.02405       -0.19188
C          6.23808       -1.22643        0.32180
C          7.13216       -2.06629        0.97957
C          7.00515       -3.32202        1.67848
C          5.94454       -4.18575        1.77359
C          5.74094       -5.31064        2.65497
C          6.38845       -5.77995        3.79411
C          5.88691       -6.88283        4.45392
C          4.76607       -4.19481        0.84680
O          4.49277       -3.45260       -0.07490
N          4.00839       -5.29136        1.17190
C          2.81863       -5.67816        0.46034
C          3.03501       -6.92276       -0.41473
C          1.69574       -7.39349       -0.97469
C          4.01962       -6.61735       -1.53913
C          4.54558       -5.95493        2.25659
C          4.03821       -7.05041        2.91025
C          4.73311       -7.55003        4.02360
C          4.27203       -8.73823        4.69091
S          5.05170       -9.29681        6.16254
C          4.01353      -10.65526        6.21525
C          3.76400      -11.76555        7.05611
S          4.36214      -12.44529        8.50657
C          3.26212       -9.59056        4.29533
C          3.11789      -10.69437        5.13783
C          2.25987      -11.87192        5.27447
C          1.25069      -12.30431        4.49487
C          0.85432      -11.74824        3.21003
C          1.80164      -11.41530        2.24080
C          1.40756      -10.88564        1.02655
C          0.06367      -10.68156        0.75766
C         -0.88732      -11.03460        1.70178
C         -0.49802      -11.57547        2.91215
C          2.70476      -12.50355        6.51571
C          2.39735      -13.63288        7.27649
C          3.19648      -13.75511        8.39482
C          3.17060      -14.77716        9.40881
C          2.47581      -15.97680        9.19098
C          2.47547      -16.93034       10.18072
N          1.84840      -18.16135       10.18350
C          1.08440      -18.75695        9.11670
C         -0.42323      -18.44423        9.17036
C         -1.00782      -18.80887       10.53235
C         -0.72663      -16.98634        8.83454
C          2.10822      -18.83263       11.35241
O          1.77292      -19.98343       11.54349
C          3.83530      -14.59066       10.62691
C          3.84447      -15.55622       11.61161
C          3.17634      -16.75801       11.39938
C          2.94378      -17.93014       12.21026
C          3.38092      -18.24314       13.46854
C          2.90679      -19.25158       14.39613
C          1.83092      -20.13036       14.39063
C          1.60662      -20.93157       15.49910
C          4.53778      -17.58954       14.16277
O          5.30508      -16.73858       13.75912
N          4.67906      -18.20512       15.37938
C          5.68104      -17.82355       16.33944
C          5.11442      -16.96599       17.48199
C          6.22254      -16.66940       18.48825
C          4.51838      -15.67191       16.93608
C          3.71423      -19.17654       15.55367
C          3.49952      -19.98277       16.65287
C          2.43458      -20.87189       16.60887
H         43.47196       26.05271       -5.37041
H         43.05015       25.96846       -7.94086
H         39.73973       24.49868      -10.63114
H         43.09929       24.00186       -9.39867
H         45.14518       24.80924      -10.50451
H         44.99208       26.43529      -12.35442
H         42.78162       27.23056      -13.10937
H         40.73698       26.42677      -12.00158
H         37.67848       23.27174       -9.53776
H         35.52320       22.76745       -9.58681
H         33.84474       22.91876      -11.08028
H         32.18200       22.38957      -11.43145
H         33.02007       20.15010      -12.06904
H         34.26434       22.47839      -13.60782
H         32.61308       21.87940      -13.78996
H         33.97657       20.86394      -14.25792
H         35.80027       21.40053      -11.85412
H         35.43307       19.79640      -12.48425
H         35.15879       20.15201      -10.78050
H         35.94835       21.56078       -5.49890
H         33.81142       20.39080       -5.57694
H         29.16796       20.43516       -9.11462
H         26.88713       19.60466       -8.94575
H         31.69952       16.69433       -4.58145
H         29.99728       16.23279       -4.82510
H         30.55222       16.91401       -2.49876
H         30.96293       19.72052       -3.63006
H         32.26450       18.65308       -3.10567
H         31.07391       19.23919       -1.93810
H         28.59204       18.82155       -3.85864
H         28.65813       18.46640       -2.13414
H         28.21966       17.19532       -3.27054
H         27.98425       17.05851       -5.67860
H         24.86055       18.84498       -8.75321
H         20.51756       17.76810       -9.02587
H         23.80557       17.60581      -10.52086
H         24.67924       19.18259      -12.19668
H         23.47237       21.28328      -12.66587
H         21.37453       21.78762      -11.46796
H         20.50777       20.21759       -9.78351
H         19.59926       15.83376       -7.48582
H         20.82090       12.76703       -4.08512
H         20.94669       10.89045       -2.85181
H         19.98751        9.57418       -2.13217
H         19.16238       11.11311       -0.38392
H         22.20500       10.92507       -0.58939
H         21.12948        9.67151        0.03656
H         21.29812       11.20053        0.89831
H         21.19333       13.09847       -1.51515
H         20.25942       13.30565       -0.03464
H         19.43710       13.27782       -1.59202
H         17.95738       14.61816       -6.68008
H         16.18792       13.20013       -5.80559
H         16.06567        8.18785       -2.79522
H         14.37780        6.48295       -2.36170
H         12.04685       12.88077       -4.42918
H         11.09333       11.49151       -3.85521
H         10.55806       12.27535       -6.16990
H         13.29747       11.16297       -6.93303
H         12.91115       12.87920       -6.81583
H         12.10582       11.87002       -8.02328
H         11.64962        9.42523       -6.07309
H         10.49428       10.05464       -7.24614
H         10.03904        9.94085       -5.54766
H         11.26025        9.15394       -3.58964
H          9.87691        7.49098       -3.38517
H          6.31293        4.91847       -2.62096
H          8.66908        6.11992       -5.05235
H          8.37400        8.11101       -6.46668
H          6.59457        9.74328       -5.95031
H          5.08527        9.34775       -4.03839
H          5.37215        7.34888       -2.63205
H          6.68672        2.56655       -1.41524
H          9.93645       -0.11298        0.76280
H         10.76403       -3.25112        2.93923
H         10.81626       -1.50679        2.57782
H         11.23501       -2.05789        0.16400
H         13.13444       -1.62826        1.71129
H         13.57812       -2.81376        0.48372
H         13.19448       -3.34451        2.12164
H         11.37434       -4.93157        1.18186
H         11.84227       -4.40021       -0.43765
H         10.16219       -4.27973        0.08166
H          5.97654        0.60463       -0.71379
H          5.21066       -1.51705        0.19173
H          7.28593       -5.30777        4.15130
H          6.40635       -7.25462        5.32493
H          2.54216       -4.82905       -0.17097
H          2.01600       -5.86057        1.18324
H          3.45622       -7.71763        0.21112
H          1.24162       -6.60982       -1.57705
H          1.00951       -7.65337       -0.17089
H          1.83596       -8.26978       -1.60309
H          3.63353       -5.82469       -2.17593
H          4.18904       -7.50197       -2.14891
H          4.97590       -6.29230       -1.13570
H          3.12027       -7.51098        2.58480
H          2.65514       -9.41699        3.42693
H          0.65576      -13.13639        4.85218
H          2.84662      -11.60268        2.43844
H          2.15156      -10.63243        0.28527
H         -0.24219      -10.26118       -0.18888
H         -1.93687      -10.89122        1.49044
H         -1.24121      -11.84664        3.64834
H          1.60881      -14.32336        7.03879
H          1.97022      -16.14810        8.25588
H          1.21732      -19.83929        9.21491
H          1.50260      -18.43530        8.15930
H         -0.89213      -19.07803        8.40878
H         -0.74426      -19.82811       10.80222
H         -2.09173      -18.72130       10.51340
H         -0.62603      -18.14181       11.30312
H         -0.25553      -16.31787        9.55163
H         -1.80045      -16.81488        8.86389
H         -0.37348      -16.73738        7.83574
H          4.35870      -13.66135       10.79665
H          4.38704      -15.38423       12.52398
H          1.18840      -20.21106       13.53208
H          0.77572      -21.62052       15.49209
H          6.43306      -17.24871       15.79095
H          6.14852      -18.72757       16.74222
H          4.32065      -17.53100       17.98346
H          6.63956      -17.59079       18.88925
H          5.83480      -16.08048       19.31582
H          7.02342      -16.10769       18.01275
H          4.14428      -15.05413       17.74927
H          3.69213      -15.88099       16.25979
H          5.27174      -15.10937       16.38936
H          4.13607      -19.92855       17.52226
H          2.24937      -21.51850       17.45385
