206
d7a11.out	Energy:   -9822.4302324
C         23.98211       -9.20857       -7.01195
S         23.81115       -7.67834       -6.21740
C         22.24304       -8.13022       -5.69085
C         21.15457       -7.54454       -5.00237
S         20.75325       -6.06617       -4.23460
C         22.89793      -10.02049       -6.87338
C         21.88782       -9.42215       -6.09570
C         20.52533       -9.69968       -5.64606
C         19.74874      -10.79025       -5.79656
C         20.14588      -12.07864       -6.33849
C         21.38450      -12.63543       -6.00703
C         21.74394      -13.86850       -6.52394
O         22.92440      -14.50189       -6.27337
C         23.85969      -13.86893       -5.43345
C         20.87354      -14.55645       -7.37341
C         19.63533      -14.01703       -7.68430
O         18.71221      -14.61187       -8.48712
C         19.01958      -15.86391       -9.05088
C         19.26862      -12.78106       -7.15219
C         20.09925       -8.46634       -4.98204
C         18.96638       -7.97962       -4.33778
C         19.14485       -6.68399       -3.87784
C         18.18911       -5.88132       -3.22373
C         16.87688       -6.22256       -2.87263
N         16.28741       -7.41602       -3.07572
C         15.03896       -7.54216       -2.70181
C         14.39160       -8.86866       -2.93110
C         14.31766       -6.46155       -2.10363
C         12.88441       -6.61133       -1.71087
N         14.87604       -5.29782       -1.88603
C         16.15960       -5.14767       -2.25791
C         16.91902       -3.97564       -2.13519
S         18.51146       -4.23519       -2.77509
C         16.49330       -2.73189       -1.63615
S         17.52633       -1.30956       -1.71590
C         16.26333       -0.35555       -1.05492
C         15.99581        1.00117       -0.81261
S         16.78580        2.51556       -0.95786
C         15.24872       -2.44998       -1.08959
C         15.11308       -1.11181       -0.74601
C         14.07190       -0.20520       -0.26262
C         12.82086       -0.47176        0.15694
C         12.25171       -1.79023        0.38935
C         12.98544       -2.77699        1.02969
C         12.41878       -4.02621        1.28409
O         13.21545       -4.91255        1.93766
C         12.68798       -6.17280        2.27020
C         11.11998       -4.28480        0.87532
C         10.37480       -3.28932        0.23712
O          9.10883       -3.65697       -0.11024
C          8.28601       -2.70941       -0.74582
C         10.92848       -2.04082        0.01169
C         14.66561        1.12666       -0.36507
C         14.28974        2.44496       -0.15143
C         15.31711        3.33596       -0.43782
C         15.25805        4.73937       -0.40227
C         14.14801        5.55317       -0.13310
N         12.91961        5.12437        0.20745
C         11.99506        6.03430        0.39225
C         10.63296        5.55074        0.76794
C         12.26814        7.43027        0.24759
C         11.19626        8.44787        0.45190
N         13.46294        7.86881       -0.06771
C         14.42508        6.94974       -0.27161
C         15.75130        7.21561       -0.64060
S         16.63206        5.72604       -0.79628
C         16.34359        8.45950       -0.91865
S         18.05455        8.57269       -1.31339
C         17.88878       10.26296       -1.54557
C         18.67759       11.32764       -2.00750
S         20.28958       11.60492       -2.53136
C         15.71041        9.69479       -0.95871
C         16.57894       10.72567       -1.29590
C         16.53096       12.16019       -1.58261
C         15.52856       13.05298       -1.45704
C         14.23240       12.84611       -0.83723
C         14.10441       12.04533        0.29579
C         12.86004       11.88033        0.89059
O         12.62672       11.12111        1.99549
C         13.67617       10.32165        2.49234
C         11.74898       12.52083        0.35108
C         11.87491       13.33980       -0.76693
O         10.72297       13.92359       -1.19891
C         10.78009       14.77832       -2.31493
C         13.12077       13.51162       -1.35553
C         17.86939       12.47938       -2.07736
C         18.55479       13.57958       -2.57243
C         19.87577       13.27690       -2.87924
C         20.86320       14.10117       -3.43715
C         22.18536       13.71887       -3.68370
N         22.69209       12.51498       -3.37983
C         23.95769       12.31347       -3.64920
C         24.52073       10.97510       -3.30615
C         24.76411       13.33833       -4.24004
C         26.21757       13.11287       -4.49943
N         24.27880       14.51251       -4.55977
C         22.97793       14.73486       -4.29413
C         22.25716       15.91397       -4.53201
S         20.61907       15.73812       -3.96388
C         22.72782       17.08233       -5.15539
S         21.73064       18.52349       -5.31051
C         23.00832       19.32037       -6.13310
C         23.28435       20.59163       -6.66865
S         22.49617       22.09785       -6.89204
C         23.98104       17.24413       -5.73044
C         24.14085       18.49870       -6.30226
C         25.18320       19.26801       -6.98138
C         26.42205       18.89601       -7.35282
C         26.96069       17.54366       -7.31671
C         26.20939       16.47633       -7.78367
C         26.74785       15.18940       -7.80643
O         25.93991       14.22162       -8.31406
C         26.45192       12.91853       -8.44593
C         28.03283       14.97730       -7.33259
C         28.79185       16.05127       -6.85929
O         30.03948       15.72043       -6.42130
C         30.87130       16.74306       -5.93013
C         28.26906       17.33334       -6.87107
C         24.59942       20.59381       -7.16832
C         24.95874       21.80975       -7.73800
C         23.93536       22.74159       -7.67311
C         23.97001       24.06480       -8.16595
C         25.01861       24.69877       -8.83862
N         26.21634       24.16276       -9.14135
C         27.06495       24.92122       -9.78608
C         28.39167       24.32333      -10.12280
C         26.74733       26.27142      -10.15987
C         27.73675       27.11259      -10.89740
N         25.59741       26.81728       -9.87736
C         24.69998       26.05145       -9.21160
C         23.43639       26.42702       -8.82383
S         22.62985       25.15407       -8.01317
H         24.89111       -9.40935       -7.54365
H         22.82796      -10.99123       -7.32963
H         18.71314      -10.70870       -5.49062
H         22.02338      -12.10173       -5.32373
H         24.71620      -14.53980       -5.38959
H         23.46106      -13.72493       -4.42429
H         24.17727      -12.90254       -5.83822
H         21.20269      -15.50877       -7.75385
H         18.14889      -16.14200       -9.64269
H         19.18978      -16.62112       -8.27898
H         19.89700      -15.80611       -9.70275
H         18.30439      -12.37305       -7.40926
H         18.03530       -8.49570       -4.19677
H         15.10464       -9.54125       -3.39919
H         13.52118       -8.76101       -3.57671
H         14.06043       -9.29945       -1.98714
H         12.76121       -7.44981       -1.02662
H         12.27049       -6.80455       -2.59004
H         12.54389       -5.69541       -1.23454
H         14.50349       -3.21588       -0.98736
H         12.16392        0.36867        0.34560
H         13.98896       -2.58623        1.37076
H         13.48384       -6.69543        2.79851
H         12.41230       -6.74240        1.37746
H         11.81559       -6.08271        2.92564
H         10.63754       -5.23382        1.04013
H          7.33979       -3.21627       -0.92863
H          8.71170       -2.38275       -1.70003
H          8.11102       -1.83707       -0.10797
H         10.37037       -1.25682       -0.47421
H         13.32851        2.79547        0.17506
H         10.64572        4.46753        0.84902
H          9.90382        5.84506        0.01426
H         10.32485        5.97998        1.72005
H         10.35136        8.24626       -0.20479
H         11.58487        9.43906        0.23996
H         10.83772        8.42223        1.48002
H         14.65514        9.78045       -0.77933
H         15.70072       14.04530       -1.85678
H         14.98808       11.59656        0.71499
H         13.25222        9.77263        3.33185
H         14.51386       10.92877        2.84893
H         14.02853        9.61364        1.73539
H         10.78302       12.39442        0.81072
H          9.76054       15.12757       -2.47046
H         11.12089       14.24940       -3.21097
H         11.43164       15.63851       -2.13031
H         13.24928       14.13501       -2.22587
H         18.14755       14.56288       -2.72774
H         23.74304       10.37178       -2.84649
H         25.35672       11.07745       -2.61586
H         24.88213       10.47200       -4.20217
H         26.75096       12.99007       -3.55705
H         26.62787       13.96869       -5.02945
H         26.36634       12.20790       -5.08635
H         24.70760       16.45414       -5.70701
H         27.08930       19.66309       -7.72687
H         25.21535       16.62738       -8.16987
H         25.65337       12.33219       -8.89782
H         26.71173       12.48656       -7.47490
H         27.33140       12.89769       -9.09770
H         28.49344       14.00350       -7.32053
H         31.79818       16.25308       -5.63603
H         30.42990       17.23584       -5.05788
H         31.08682       17.49078       -6.70011
H         28.84002       18.17782       -6.52025
H         25.90253       22.05289       -8.18934
H         28.42896       23.30121       -9.75656
H         29.19636       24.89801       -9.66613
H         28.54735       24.32337      -11.20076
H         27.99712       26.64892      -11.84777
H         28.65009       27.22599      -10.31528
H         27.30368       28.09151      -11.08169
H         22.95040       27.36875       -8.97369
