346
d7a12.out	Energy:  -11312.8331268
C         25.39495       39.93033        0.37828
S         26.09879       38.36114        0.58191
C         24.80233       37.66910       -0.29981
C         24.34559       36.37770       -0.66862
S         24.83290       34.74586       -0.52798
C         24.23389       39.92105       -0.33240
C         23.88357       38.62156       -0.74853
C         22.79224       37.93673       -1.44086
C         21.68523       38.42715       -2.03150
C         21.37661       39.82679       -2.27281
C         22.36574       40.69492       -2.72950
C         22.05689       42.02801       -2.97122
O         22.94448       42.95926       -3.41477
C         24.27292       42.56106       -3.65519
C         20.76145       42.48430       -2.75171
C         19.76603       41.61603       -2.31429
O         18.53529       42.17095       -2.14505
C         17.48081       41.34905       -1.70697
C         20.07111       40.27948       -2.08899
C         23.12658       36.51628       -1.33598
C         22.59444       35.28937       -1.73940
C         23.38620       34.21861       -1.37866
C         23.16458       32.81433       -1.60514
C         22.02339       32.36730       -2.28984
C         21.85780       31.01794       -2.49118
N         20.80098       30.36437       -3.09434
C         19.66038       30.95696       -3.74514
C         19.84913       31.07969       -5.26530
C         18.54189       31.53660       -5.90634
C         20.98321       32.04019       -5.61128
C         20.96844       29.00387       -3.02754
O         20.18109       28.21959       -3.51836
C         24.08395       31.86611       -1.13800
C         23.91328       30.51343       -1.34043
C         22.79782       30.06006       -2.03807
C         22.27481       28.75077       -2.34239
C         22.81290       27.50787       -2.12606
C         22.18443       26.20897       -2.12178
C         20.86407       25.77243       -2.19580
C         20.57918       24.43175       -2.03396
C         24.26438       27.24118       -1.86939
O         25.19870       28.01543       -1.80931
N         24.41532       25.88125       -1.76426
C         25.69641       25.26109       -1.54137
C         26.38784       24.76212       -2.82519
C         25.73160       23.50696       -3.39604
C         26.43392       25.86427       -3.88039
C         23.19132       25.24961       -1.85497
C         22.91139       23.91949       -1.66759
C         21.58069       23.48747       -1.77881
C         21.28115       22.08974       -1.61775
S         19.63569       21.52967       -1.37001
C         20.19029       19.91474       -1.23913
C         19.65189       18.61685       -1.06422
S         18.12893       17.86505       -0.85439
C         22.18242       21.04675       -1.60828
C         21.58182       19.80982       -1.37275
C         21.96793       18.40295       -1.27515
C         23.17771       17.82171       -1.38310
C         24.46065       18.49543       -1.51891
C         24.78380       19.59910       -0.74378
C         26.01818       20.23154       -0.89833
O         26.22806       21.32119       -0.10684
C         27.50136       21.92367       -0.11879
C         26.92660       19.74906       -1.82571
C         26.61407       18.62188       -2.59056
O         27.58644       18.23185       -3.45937
C         27.34929       17.10987       -4.27475
C         25.39297       17.98898       -2.42991
C         20.70396       17.69395       -1.08568
C         20.26820       16.38026       -0.90523
C         18.89906       16.28923       -0.76802
C         18.10550       15.10017       -0.59271
C         18.69955       13.93047       -0.09399
C         17.92996       12.79837        0.02123
N         18.28292       11.56402        0.53319
C         19.57801       11.16041        1.01859
C         20.50233       10.58182       -0.06976
C         19.80475        9.46009       -0.83451
C         21.00320       11.65225       -1.03600
C         17.18667       10.73921        0.60810
O         17.22914        9.61775        1.07184
C         16.74314       15.09206       -0.91388
C         15.97386       13.95280       -0.79711
C         16.56392       12.77463       -0.35099
C         16.04747       11.46737       -0.03441
C         14.84409       10.89273       -0.34759
C         14.23830        9.68021        0.14056
C         14.48630        8.85969        1.23612
C         13.64640        7.79554        1.49313
C         13.94182       11.36935       -1.44401
O         14.01499       12.36792       -2.13026
N         12.97800       10.40539       -1.61689
C         11.95697       10.51183       -2.62831
C         12.28991        9.76592       -3.93412
C         13.64920       10.20110       -4.47575
C         12.24538        8.24932       -3.76596
C         13.09462        9.42317       -0.65380
C         12.25805        8.36345       -0.40302
C         12.53982        7.51763        0.67911
C         11.69894        6.37583        0.92840
S         10.62231        5.79481       -0.33496
C         10.09025        4.52754        0.68233
C          9.13975        3.48095        0.65278
S          8.03330        2.77427       -0.44352
C         11.61710        5.60090        2.06444
C         10.71639        4.53857        1.93591
C         10.15846        3.45843        2.75113
C         10.45911        3.07163        4.00622
C         11.56343        3.55777        4.81688
C         11.36630        3.78535        6.17786
C         12.41529        4.25889        6.95656
O         12.33235        4.53544        8.28609
C         11.10133        4.34248        8.93912
C         13.66080        4.47520        6.37539
C         13.87158        4.21348        5.02537
O         15.12973        4.44733        4.56681
C         15.41246        4.19749        3.21001
C         12.81894        3.75121        4.24451
C          9.14112        2.84527        1.89918
C          8.22649        1.79128        1.96124
C          7.54043        1.61274        0.77840
C          6.53532        0.63030        0.46423
C          5.82892       -0.01689        1.48967
C          4.88805       -0.95713        1.14417
N          4.03312       -1.65579        1.97310
C          4.02597       -1.61050        3.41127
C          5.21106       -2.36614        4.03173
C          5.17237       -2.21076        5.54929
C          5.17099       -3.83891        3.63585
C          3.16287       -2.42534        1.24150
O          2.31213       -3.12842        1.74765
C          6.24343        0.31575       -0.86882
C          5.30810       -0.63893       -1.20836
C          4.62501       -1.31164       -0.20055
C          3.54131       -2.26285       -0.19795
C          2.99151       -2.96548       -1.23780
C          1.74419       -3.68259       -1.32884
C          0.63869       -3.81559       -0.49270
C         -0.47137       -4.50717       -0.93552
C          3.67715       -3.19798       -2.55098
O          4.78527       -2.86211       -2.91661
N          2.85078       -3.99408       -3.30317
C          3.22628       -4.49027       -4.60368
C          2.91674       -3.51404       -5.74880
C          3.49530       -4.07618       -7.04473
C          1.41753       -3.27226       -5.90095
C          1.68388       -4.26446       -2.61806
C          0.58688       -4.95907       -3.05954
C         -0.52602       -5.07774       -2.21246
C         -1.69651       -5.76235       -2.69414
S         -2.97840       -6.29060       -1.61743
C         -3.84113       -6.94979       -2.94463
C         -5.08213       -7.58079       -3.20448
S         -6.46573       -8.10865       -2.34942
C         -1.96678       -6.08772       -4.00579
C         -3.16562       -6.78222       -4.16028
C         -3.97510       -7.33541       -5.24566
C         -3.70697       -7.37984       -6.56390
C         -2.44787       -6.96237       -7.17130
C         -1.23279       -7.39710       -6.63372
C         -0.04114       -6.93818       -7.16901
O          1.19887       -7.25548       -6.69320
C          1.29765       -8.18927       -5.64363
C         -0.04991       -6.05904       -8.25439
C         -1.25336       -5.66012       -8.81454
O         -1.36743       -4.82114       -9.87654
C         -0.19194       -4.29920      -10.44900
C         -2.45437       -6.12515       -8.27538
C         -5.18851       -7.80790       -4.58259
C         -6.39188       -8.42010       -4.93326
C         -7.21148       -8.65025       -3.84654
C         -8.53001       -9.22678       -3.82493
C         -9.08850       -9.77642       -4.99024
C        -10.35503      -10.30434       -4.92803
N        -11.09786      -10.85011       -5.95589
C        -10.63654      -11.09482       -7.29693
C         -9.65527      -12.27414       -7.38112
C        -10.32224      -13.55921       -6.90036
C         -9.16540      -12.42265       -8.81872
C        -12.35806      -11.17749       -5.52555
O        -13.18607      -11.70246       -6.24099
C         -9.28711       -9.23478       -2.64646
C        -10.56203       -9.75871       -2.59279
C        -11.12230      -10.31447       -3.73865
C        -12.42790      -10.83971       -4.06488
C        -13.52307      -11.05167       -3.27228
C        -14.91000      -11.26517       -3.63362
C        -15.60777      -11.16919       -4.83094
C        -16.98610      -11.31227       -4.82405
C        -13.49068      -11.15984       -1.77850
O        -12.55271      -11.05600       -1.01323
N        -14.75983      -11.47872       -1.36718
C        -15.08210      -11.70005        0.01979
C        -15.04610      -13.18081        0.44297
C        -16.19678      -13.98381       -0.15796
C        -13.70758      -13.81862        0.08023
C        -15.63268      -11.48490       -2.43846
C        -17.00673      -11.61511       -2.43133
C        -17.67724      -11.53498       -3.64397
H         25.89574       40.77465        0.80905
H         23.65537       40.80595       -0.52661
H         20.93747       37.71650       -2.36266
H         23.35071       40.30114       -2.91705
H         24.79190       43.45794       -3.98945
H         24.32930       41.79840       -4.43842
H         24.75308       42.18319       -2.74656
H         20.52283       43.51859       -2.93320
H         16.60902       41.99812       -1.64321
H         17.68586       40.92231       -0.71973
H         17.27770       40.54139       -2.41770
H         19.32415       39.58208       -1.74501
H         21.66502       35.18458       -2.26850
H         21.29174       33.07217       -2.64770
H         19.46597       31.93596       -3.30165
H         18.80553       30.30194       -3.54951
H         20.09973       30.08384       -5.64474
H         18.25071       32.51343       -5.52426
H         17.74275       30.83054       -5.69453
H         18.65618       31.61122       -6.98487
H         20.75248       33.04544       -5.26291
H         21.12582       32.07941       -6.68876
H         21.91835       31.72215       -5.15618
H         24.95695       32.20902       -0.60251
H         24.65066       29.82133       -0.97530
H         20.06849       26.46747       -2.39816
H         19.55545       24.09524       -2.10895
H         25.57429       24.43549       -0.83463
H         26.32781       26.03034       -1.08550
H         27.41676       24.51367       -2.53767
H         25.70778       22.70549       -2.66044
H         26.29300       23.15435       -4.25887
H         24.71353       23.71551       -3.71626
H         25.43437       26.07367       -4.25638
H         27.05529       25.55891       -4.71914
H         26.83798       26.78179       -3.46073
H         23.69027       23.22200       -1.41255
H         23.23099       21.17750       -1.79462
H         23.21321       16.73895       -1.40389
H         24.10398       19.96304        0.00889
H         27.45843       22.71868        0.62411
H         27.73489       22.35543       -1.09697
H         28.28227       21.20947        0.15854
H         27.88884       20.20536       -1.98590
H         26.48624       17.26487       -4.93007
H         27.19607       16.20475       -3.67838
H         28.24537       16.99251       -4.88191
H         25.12841       17.12225       -3.01391
H         20.91469       15.52154       -0.90629
H         19.73059       13.94013        0.21748
H         19.39337       10.38226        1.76585
H         20.05781       12.01325        1.50685
H         21.36706       10.16146        0.45676
H         20.50887        8.95750       -1.49368
H         18.99492        9.85915       -1.44237
H         19.38510        8.72966       -0.14792
H         21.55228       12.42729       -0.50465
H         20.17333       12.11035       -1.56928
H         21.67313       11.20622       -1.76797
H         16.28959       16.00303       -1.27546
H         14.93240       13.97705       -1.06443
H         15.33468        9.03824        1.87280
H         13.85773        7.15774        2.33676
H         11.86065       11.57881       -2.85259
H         11.01073       10.14845       -2.21805
H         11.51682       10.05589       -4.65501
H         13.71406       11.28468       -4.52969
H         13.80808        9.79080       -5.47031
H         14.44911        9.84500       -3.82925
H         12.99559        7.91715       -3.05212
H         12.44681        7.76576       -4.71923
H         11.26625        7.92182       -3.42295
H         11.38539        8.17884       -1.00905
H         12.16424        5.82303        2.96192
H          9.82449        2.32532        4.46879
H         10.38721        3.61519        6.59623
H         11.27042        4.62917        9.97578
H         10.78533        3.29484        8.90175
H         10.31585        4.97537        8.51341
H         14.47393        4.83845        6.98080
H         16.45650        4.47352        3.07256
H         14.79104        4.80560        2.54489
H         15.28113        3.13961        2.96084
H         12.95537        3.50698        3.20419
H          8.08133        1.16424        2.82214
H          6.00064        0.24859        2.52020
H          3.08930       -2.07599        3.73112
H          4.03257       -0.56448        3.73634
H          6.14158       -1.92881        3.65238
H          4.25663       -2.64052        5.94876
H          5.21201       -1.16120        5.83389
H          6.01755       -2.72162        6.00404
H          5.24796       -3.95118        2.55663
H          4.23673       -4.29255        3.95857
H          5.99699       -4.37787        4.09425
H          6.78077        0.82956       -1.65224
H          5.12679       -0.86674       -2.24364
H          0.64992       -3.39535        0.49753
H         -1.33004       -4.60393       -0.28743
H          2.72183       -5.44311       -4.77752
H          4.30754       -4.65993       -4.57485
H          3.40837       -2.56320       -5.51785
H          3.04986       -5.04526       -7.26232
H          4.57228       -4.20147       -6.96382
H          3.29086       -3.40363       -7.87466
H          0.91122       -4.19291       -6.18579
H          1.23460       -2.53256       -6.67768
H          0.98213       -2.90411       -4.97488
H          0.57764       -5.40111       -4.04078
H         -1.33845       -5.79337       -4.82413
H         -4.48078       -7.71987       -7.24007
H         -1.25132       -8.08924       -5.80809
H          2.36354       -8.30498       -5.45224
H          0.87464       -9.15717       -5.92827
H          0.80324       -7.83348       -4.73331
H          0.90133       -5.72327       -8.63169
H         -0.52172       -3.65287      -11.26062
H          0.44423       -5.09261      -10.85369
H          0.37834       -3.70945       -9.72454
H         -3.38090       -5.78802       -8.71116
H         -6.66395       -8.66925       -5.94241
H         -8.53565       -9.77938       -5.91484
H        -10.16778      -10.18422       -7.68527
H        -11.52565      -11.31829       -7.89351
H         -8.79733      -12.06329       -6.73275
H        -10.62496      -13.47188       -5.85920
H         -9.63518      -14.39794       -6.98579
H        -11.20784      -13.77188       -7.49475
H         -8.68034      -11.51064       -9.16076
H        -10.00069      -12.63704       -9.48152
H         -8.45092      -13.23876       -8.89252
H         -8.85842       -8.80819       -1.75157
H        -11.10652       -9.74836       -1.66551
H        -15.08967      -11.00054       -5.75801
H        -17.52860      -11.24601       -5.75481
H        -16.06682      -11.27292        0.22846
H        -14.32935      -11.15540        0.59843
H        -15.15280      -13.18767        1.53395
H        -17.15807      -13.56956        0.13898
H        -16.15149      -15.01323        0.19052
H        -16.13789      -13.99005       -1.24394
H        -13.63342      -14.81258        0.51531
H        -12.88105      -13.21434        0.44458
H        -13.60952      -13.91209       -0.99964
H        -17.55294      -11.76622       -1.51415
H        -18.75179      -11.64193       -3.66143
