226
d7a5.out	Energy:  -10567.3771556
C         32.39724        5.97359       -2.10071
S         31.00972        6.89940       -2.57441
C         30.00856        5.88657       -1.61806
C         28.64970        5.81306       -1.23488
S         27.16974        6.63071       -1.52077
C         32.10428        4.94315       -1.25977
C         30.72639        4.86483       -0.98347
C         29.80536        4.08755       -0.15675
C         30.02606        3.02563        0.64145
C         31.26290        2.26840        0.75329
C         31.70494        1.84320        1.99731
C         32.89380        1.12371        2.11550
O         33.25230        0.77811        3.38274
C         34.44714        0.05957        3.56901
C         33.61925        0.80578        0.97846
C         33.15629        1.20017       -0.27938
O         33.93938        0.81653       -1.32805
C         33.54165        1.18080       -2.62781
C         31.98518        1.92906       -0.39422
C         28.50971        4.74577       -0.33543
C         27.20408        4.58551        0.10857
C         26.33625        5.52527       -0.43233
C         24.94159        5.68010       -0.20469
C         24.23882        6.74450       -0.80186
N         24.79926        7.64317       -1.60926
S         23.74624        8.71929       -2.15568
N         22.44190        8.03469       -1.31914
C         22.82916        6.94045       -0.60454
C         24.15821        4.80904        0.60958
N         24.74237        3.74618        1.18836
C         24.05194        2.95791        1.97925
C         24.76451        1.78406        2.57161
C         22.69790        3.23539        2.26050
C         21.89650        2.43025        3.23207
N         22.09229        4.23891        1.66612
C         22.76135        5.02827        0.81836
C         22.04909        6.10133        0.17688
C         20.63398        6.25292        0.34177
S         19.81273        7.79845        0.06375
C         18.29587        7.09380        0.44376
C         16.95674        7.49185        0.55293
S         15.99106        8.89809        0.35160
C         19.73016        5.27848        0.71841
C         18.41424        5.72757        0.76379
C         17.08690        5.21571        1.10150
C         16.70831        3.99600        1.52704
C         17.55708        2.81837        1.63618
C         17.47176        2.01278        2.76754
C         18.29314        0.89972        2.90196
O         18.14319        0.19354        4.05898
C         18.94814       -0.93806        4.27393
C         19.19356        0.56804        1.89334
C         19.25750        1.35464        0.74696
O         20.09196        1.11618       -0.30342
C         21.00009        0.04798       -0.22283
C         18.43743        2.47005        0.61811
C         16.20062        6.37095        0.95571
C         14.85261        6.65310        1.07875
C         14.55035        7.98199        0.78592
C         13.28959        8.62408        0.79341
C         13.19716       10.00581        0.52403
N         14.24839       10.77416        0.26032
S         13.84600       12.31272        0.04365
N         12.19308       12.02714        0.28706
C         11.94552       10.71129        0.54872
C         12.04750        7.96634        1.05210
N         12.04652        6.65282        1.32734
C         10.91295        6.00970        1.49518
C         10.99126        4.55183        1.81932
C          9.68451        6.68362        1.34841
C          8.36766        5.97838        1.40525
N          9.66420        7.98156        1.13765
C         10.80444        8.66896        1.01653
C         10.73087       10.09401        0.80800
C          9.47964       10.78871        0.87456
S          9.26530       12.41187        0.19435
C          7.62806       12.44398        0.70169
C          6.52400       13.30207        0.61461
S          6.13000       14.86837        0.03074
C          8.30321       10.34235        1.44689
C          7.26056       11.26000        1.36952
C          5.84587       11.35246        1.72766
C          5.04245       10.46529        2.34429
C          5.44399        9.20209        2.94431
C          6.59679        9.10748        3.71627
C          6.97332        7.89113        4.27439
O          8.12742        7.91070        4.99860
C          8.60928        6.71023        5.54497
C          6.18960        6.75804        4.07642
C          5.02094        6.85647        3.32623
O          4.17730        5.81358        3.08062
C          4.49270        4.54705        3.60111
C          4.64583        8.07494        2.77296
C          5.42218       12.65535        1.21364
C          4.27379       13.42484        1.18711
C          4.46810       14.66419        0.57904
C          3.53727       15.71327        0.39473
C          3.95269       16.93898       -0.16527
N          5.19371       17.17625       -0.57561
S          5.38298       18.67297       -1.12429
N          3.76539       19.09560       -0.84432
C          3.06276       18.05924       -0.30229
C          2.15571       15.64054        0.75401
N          1.66776       14.48487        1.23040
C          0.39093       14.38080        1.51982
C         -0.08951       13.06320        2.03743
C         -0.47904       15.47419        1.33019
C         -1.94192       15.36883        1.59777
N         -0.01833       16.62964        0.90072
C          1.28128       16.75954        0.60802
C          1.73806       18.02747        0.10660
C          0.87599       19.17581        0.06085
S          1.17615       20.45995       -1.11878
C         -0.06019       21.42051       -0.42749
C         -0.52506       22.73546       -0.54932
S         -0.26387       24.13264       -1.51267
C         -0.19194       19.49439        0.88030
C         -0.72415       20.76081        0.62644
C         -1.66301       21.70879        1.22704
C         -2.49594       21.62479        2.28126
C         -2.93846       20.46397        3.03420
C         -3.13371       20.58409        4.40776
C         -3.67688       19.53523        5.13823
O         -3.78992       19.74366        6.48024
C         -4.34686       18.73141        7.28087
C         -4.09726       18.37952        4.48609
C         -3.93201       18.27118        3.10883
O         -4.36830       17.20938        2.37299
C         -5.07990       16.18153        3.01434
C         -3.31476       19.28994        2.39039
C         -1.47980       22.94662        0.46569
C         -1.99032       24.23064        0.45889
C         -1.44051       25.02379       -0.54791
C         -1.70836       26.37923       -0.84460
C         -1.04972       27.00619       -1.92833
N         -0.17198       26.40515       -2.71855
S          0.40238       27.38272       -3.86281
N         -0.52690       28.71900       -3.34202
C         -1.29546       28.38500       -2.25939
C         -2.62171       27.19855       -0.10499
N         -3.28612       26.68880        0.94381
C         -4.11895       27.45005        1.62054
C         -4.82719       26.82500        2.77969
C         -4.32785       28.79944        1.25975
C         -5.26745       29.68472        2.01178
N         -3.69123       29.32622        0.23584
C         -2.83677       28.56372       -0.46399
C         -2.16441       29.15999       -1.55650
H         33.35783        6.26172       -2.47979
H         32.85157        4.28869       -0.84858
H         29.21069        2.69510        1.27257
H         31.15600        2.08632        2.89279
H         34.53394       -0.09463        4.64349
H         35.31488        0.62415        3.21322
H         34.41499       -0.91183        3.06520
H         34.53942        0.24728        1.01502
H         34.30808        0.78392       -3.29175
H         33.48892        2.26808       -2.74448
H         32.57365        0.74190       -2.88970
H         31.59408        2.22264       -1.35393
H         26.85540        3.83967        0.79606
H         21.48751        8.33979       -1.42099
H         25.78531        1.75275        2.20198
H         24.26049        0.85608        2.30421
H         24.77870        1.85910        3.65820
H         21.90633        1.37616        2.95769
H         20.87103        2.78969        3.24315
H         22.31884        2.51978        4.23262
H         20.05256        4.28179        0.94399
H         15.68273        3.87307        1.85189
H         16.79153        2.25228        3.56890
H         18.77387       -1.70926        3.51592
H         18.65773       -1.32489        5.24955
H         20.01208       -0.67871        4.29349
H         19.82685       -0.29717        1.99451
H         21.56657        0.07133       -1.15243
H         20.48745       -0.91644       -0.13838
H         21.69096        0.16947        0.61846
H         18.48147        3.04183       -0.29359
H         14.08168        5.96385        1.36407
H         11.50703       12.76147        0.34179
H         12.03150        4.24165        1.85486
H         10.46857        3.96669        1.06406
H         10.52712        4.35038        2.78436
H          8.27705        5.40398        2.32602
H          8.27858        5.28568        0.56853
H          7.56178        6.70538        1.35204
H          8.24022        9.37069        1.89424
H          3.98512       10.69464        2.38987
H          7.20081        9.97643        3.91602
H          9.54117        6.96697        6.04628
H          8.81631        5.96775        4.76676
H          7.91210        6.28722        6.27643
H          6.47792        5.81534        4.51005
H          3.68855        3.88760        3.27830
H          4.53078        4.55686        4.69568
H          5.44340        4.17343        3.20585
H          3.74096        8.11984        2.18865
H          3.31340       13.14876        1.57739
H          3.41059       20.03313       -0.94578
H         -0.52805       13.18032        3.02760
H          0.74374       12.36883        2.09485
H         -0.85195       12.65209        1.37720
H         -2.38274       14.58319        0.98544
H         -2.42431       16.31358        1.37039
H         -2.11528       15.11550        2.64301
H         -0.52863       18.82880        1.65248
H         -2.94464       22.55671        2.60629
H         -2.85448       21.48592        4.92839
H         -4.32091       19.11431        8.29990
H         -3.76119       17.80748        7.22939
H         -5.38530       18.52127        7.00312
H         -4.56257       17.58268        5.04099
H         -5.34413       15.47380        2.23028
H         -5.99485       16.55767        3.48388
H         -4.46940       15.67089        3.76655
H         -3.19854       19.18341        1.32455
H         -2.72328       24.63280        1.13174
H         -0.51390       29.62198       -3.77940
H         -4.52239       25.78696        2.87697
H         -5.90581       26.86872        2.63474
H         -4.58944       27.35553        3.70079
H         -4.96195       29.76531        3.05428
H         -6.27708       29.27655        1.98697
H         -5.26717       30.67217        1.55940
H         -2.35691       30.19291       -1.79259
