186
d7a7.out	Energy:  -11533.5179131
C         31.15706        1.57723        0.33123
S         29.72207        1.21713        1.22961
C         28.81997        2.24515        0.19504
C         27.49509        2.72180        0.08770
S         25.98327        2.54118        0.87294
C         30.95482        2.43505       -0.70810
C         29.60646        2.82220       -0.81305
C         28.76747        3.71046       -1.61332
C         29.06157        4.51192       -2.65551
C         30.32014        4.59802       -3.37632
C         31.03930        3.45959       -3.70654
C         32.23548        3.56300       -4.41790
O         32.86200        2.38666       -4.69012
C         34.06301        2.41902       -5.42293
C         32.70584        4.81127       -4.79159
C         31.97412        5.95967       -4.47594
O         32.52812        7.12750       -4.90517
C         31.85275        8.33155       -4.63315
C         30.77963        5.85502       -3.78450
C         27.44447        3.62060       -0.99322
C         26.17833        4.14944       -1.18925
C         25.25895        3.67140       -0.26108
C         23.88607        3.99513       -0.16126
C         23.21077        4.86565       -1.04939
N         23.74042        5.51097       -2.09027
S         22.59882        6.38299       -2.81647
N         21.37010        5.99457       -1.85404
C         21.79924        5.15719       -0.91285
C         23.06938        3.45948        0.86014
N         23.49794        2.63402        1.81512
S         22.27607        2.26673        2.79345
N         21.13696        3.13351        2.05801
C         21.66081        3.75544        1.00059
C         20.98023        4.61263        0.10253
C         19.60667        4.91616        0.19800
S         18.84754        6.03760       -0.91863
C         17.34585        5.82670       -0.10743
C         16.01734        6.23453       -0.24706
S         15.06589        7.21500       -1.28842
C         18.70865        4.41420        1.13924
C         17.43953        4.93852        0.99671
C         16.11824        4.79274        1.60380
C         15.71582        4.05196        2.65564
C         16.56296        3.28471        3.55413
C         17.77541        3.80129        4.00565
C         18.58211        3.04306        4.84575
O         19.78667        3.44453        5.33208
C         20.28769        4.69788        4.92956
C         18.16262        1.77714        5.24104
C         16.93624        1.27123        4.82180
O         16.62271        0.03119        5.28794
C         15.39482       -0.54031        4.90746
C         16.12876        2.03145        3.98526
C         15.24552        5.61368        0.76841
C         13.90807        5.94211        0.69842
C         13.62639        6.79894       -0.36912
C         12.36926        7.29124       -0.76665
C         11.15227        7.01344       -0.09105
N         11.02866        6.31152        1.03363
S          9.47242        6.24079        1.44819
N          8.87358        7.09566        0.22589
C          9.86489        7.47691       -0.57521
C         12.22076        8.09061       -1.92472
N         13.21773        8.50059       -2.70505
S         12.61568        9.35253       -3.93394
N         11.05783        9.24078       -3.53753
C         10.93991        8.53163       -2.41781
C          9.71872        8.21871       -1.77672
C          8.47638        8.56444       -2.33812
S          8.39338        9.35752       -3.90331
C          6.67794        9.26705       -3.85576
C          5.59299        9.62937       -4.65401
S          5.29460       10.34682       -6.18650
C          7.21137        8.28075       -1.81748
C          6.19270        8.65078       -2.66918
C          4.73162        8.62632       -2.71230
C          3.83726        8.18698       -1.80668
C          4.12776        7.49982       -0.55691
C          3.43086        7.86031        0.59230
C          3.70339        7.23700        1.80460
O          2.98282        7.68270        2.87081
C          3.20185        7.10120        4.13206
C          4.65580        6.22376        1.87071
C          5.32407        5.83349        0.71387
O          6.25397        4.83937        0.66589
C          6.55978        4.13863        1.84510
C          5.05949        6.46923       -0.49452
C          4.39683        9.25837       -3.98623
C          3.26565        9.54469       -4.71985
C          3.56604       10.13459       -5.95140
C          2.66252       10.51043       -6.96242
C          1.25866       10.32611       -6.88597
N          0.57624        9.83080       -5.85466
S         -0.99162        9.78199       -6.22380
N         -0.89006       10.38442       -7.71204
C          0.38295       10.65627       -7.98933
C          3.10799       11.08141       -8.17946
N          4.37982       11.35652       -8.45659
S          4.47454       11.98552       -9.93644
N          2.90895       11.94196      -10.29911
C          2.23012       11.42440       -9.27621
C          0.83346       11.19199       -9.21850
C         -0.04190       11.41862      -10.29909
S         -1.74413       11.00489      -10.18308
C         -1.96951       11.48306      -11.81736
C         -3.01432       11.58347      -12.74361
S         -4.69590       11.25255      -12.83878
C          0.30026       11.91622      -11.55621
C         -0.77161       11.93863      -12.42642
C         -1.06245       12.34449      -13.80059
C         -0.25641       12.86432      -14.74620
C          1.18432       13.04597      -14.65624
C          2.00514       12.05692      -14.13654
C          3.38345       12.25719      -14.04883
O          4.09728       11.22916      -13.51784
C          5.49255       11.36943      -13.40589
C          3.93110       13.45057      -14.49058
C          3.10989       14.43824      -15.04122
O          3.76212       15.56013      -15.45572
C          3.00881       16.60300      -16.02524
C          1.74410       14.23398      -15.13784
C         -2.49667       12.11395      -13.94962
C         -3.46083       12.24409      -14.93161
C         -4.71646       11.82296      -14.49950
C         -5.92280       11.81304      -15.23933
C         -6.03395       12.25510      -16.57817
N         -5.05336       12.74383      -17.33910
S         -5.64671       13.11395      -18.78801
N         -7.16982       12.68389      -18.54691
C         -7.29983       12.21811      -17.29628
C         -7.12951       11.34461      -14.67704
N         -7.26697       10.88098      -13.43539
S         -8.79968       10.45247      -13.20426
N         -9.37734       10.82537      -14.65136
C         -8.38288       11.31452      -15.40770
C         -8.47589       11.75093      -16.72231
H         32.07855        1.12107        0.63467
H         31.74458        2.77064       -1.35442
H         28.28254        5.18469       -2.99387
H         30.66863        2.48005       -3.45444
H         34.37030        1.37996       -5.52998
H         34.84272        2.97432       -4.89194
H         33.91605        2.85788       -6.41469
H         33.62477        4.94501       -5.33713
H         32.47071        9.11888       -5.06173
H         31.74839        8.49956       -3.55642
H         30.86400        8.35264       -5.10240
H         30.19950        6.72682       -3.52826
H         25.89109        4.84940       -1.95148
H         19.01499        3.68281        1.86269
H         14.65086        3.99876        2.84696
H         18.05187        4.79955        3.71221
H         21.25991        4.79309        5.41106
H         19.64016        5.51585        5.26125
H         20.41225        4.74671        3.84347
H         18.78751        1.18622        5.88915
H         15.36021       -1.51369        5.39421
H         15.33255       -0.67678        3.82295
H         14.54707        0.06333        5.24756
H         15.17942        1.66188        3.63200
H         13.13051        5.59790        1.35453
H          7.10046        7.81651       -0.85634
H          2.79054        8.38485       -2.00198
H          2.69256        8.64542        0.56987
H          2.52418        7.61344        4.81325
H          4.23239        7.24943        4.47151
H          2.96800        6.03134        4.13012
H          4.86612        5.73905        2.80886
H          7.31407        3.40489        1.56501
H          5.68235        3.61744        2.24295
H          6.97224        4.80033        2.61449
H          5.56660        6.12724       -1.38087
H          2.24973        9.35043       -4.43012
H          1.30297       12.23162      -11.77289
H         -0.72082       13.21024      -15.66182
H          1.59859       11.11132      -13.81977
H          5.84715       10.44539      -12.95192
H          5.76183       12.21417      -12.76358
H          5.96221       11.49418      -14.38694
H          4.98672       13.65807      -14.44042
H          3.72688       17.38227      -16.27566
H          2.27482       17.00166      -15.31762
H          2.49650       16.27762      -16.93632
H          1.09043       14.98465      -15.55187
H         -3.31060       12.61954      -15.92676
H         -9.40269       11.72974      -17.26730
