166
d7a8.out	Energy:   -8765.5378940
C         -1.80783       -3.86605        2.06129
S         -0.69690       -2.55218        1.86164
C          0.60597       -3.66447        1.82427
C          2.02216       -3.62905        1.76611
S          3.27921       -2.47895        1.60771
C         -1.20984       -5.08833        2.08996
C          0.18766       -4.99283        1.93929
C          1.36555       -5.85970        1.94950
C          1.47287       -7.20029        2.02362
C          0.39484       -8.17221        1.95125
C         -0.66002       -8.00622        1.05966
C         -1.67121       -8.95743        0.98172
O         -2.65728       -8.69198        0.07968
C         -3.72352       -9.59889       -0.05170
C         -1.63421      -10.08757        1.79323
C         -0.56856      -10.26596        2.67148
O         -0.42854      -11.34001        3.49768
C         -1.40303      -12.35312        3.46810
C          0.44564       -9.31786        2.74032
C          2.50071       -4.93764        1.87231
C          3.89472       -5.00676        1.82699
C          4.47656       -3.76119        1.68840
C          5.85984       -3.44192        1.61326
C          6.94683       -4.27197        1.79177
C          8.17363       -3.62278        1.64803
C          8.05476       -2.28047        1.35193
S          6.37930       -1.82052        1.25495
C          9.08516       -1.32777        1.12902
S          8.68209        0.29945        0.60641
C         10.34534        0.70544        0.56834
C         11.14299        1.84697        0.33500
S         10.94487        3.47892       -0.14879
C         10.44870       -1.51135        1.25510
C         11.17802       -0.36813        0.91875
C         12.56935        0.08782        0.89194
C         13.71905       -0.58546        1.09353
C         13.87207       -2.02213        1.24474
C         13.10259       -2.89909        0.47415
C         13.25557       -4.26619        0.62784
O         12.54239       -5.20784       -0.05148
C         11.57234       -4.77777       -0.97705
C         14.18941       -4.77162        1.53629
C         14.98039       -3.90458        2.27360
O         15.93297       -4.29452        3.16274
C         16.16164       -5.67149        3.34131
C         14.82357       -2.52707        2.11946
C         12.48277        1.50997        0.56135
C         13.34965        2.58240        0.34711
C         12.68265        3.72625       -0.04480
C         13.22788        4.99372       -0.37403
C         12.58174        6.06716       -0.94727
C         13.41488        7.16145       -1.17477
C         14.71499        6.95677       -0.76789
S         14.91071        5.36034       -0.09429
C         15.80920        7.85512       -0.85757
S         15.64399        9.33961       -1.78326
C         17.26213        9.75499       -1.40586
C         18.14037       10.83840       -1.62467
S         18.15714       12.33633       -2.45373
C         17.06457        7.72272       -0.30082
C         17.90612        8.79390       -0.61200
C         19.25524        9.27219       -0.30158
C         20.23642        8.72025        0.43814
C         20.24260        7.39927        1.04403
C         19.74844        6.29329        0.37001
C         19.74248        5.03854        0.98095
O         19.21200        4.02760        0.24300
C         19.13288        2.74588        0.81784
C         20.25166        4.89745        2.26159
C         20.78567        6.00298        2.92929
O         21.27728        5.73823        4.17219
C         21.83343        6.79580        4.91426
C         20.79060        7.24707        2.32267
C         19.33939       10.58209       -0.94906
C         20.26879       11.61263       -1.09719
C         19.78894       12.64420       -1.88277
C         20.44352       13.85516       -2.23750
C         21.60118       14.39253       -1.71440
C         21.95745       15.61405       -2.28746
C         21.08543       16.03501       -3.26958
S         19.79167       14.89049       -3.47564
C         21.15967       17.21161       -4.06469
S         20.18255       17.36249       -5.51430
C         20.87546       18.89576       -5.82704
C         20.74384       19.93121       -6.78051
S         19.87184       20.26130       -8.21672
C         21.96425       18.31512       -3.85989
C         21.82059       19.27747       -4.86293
C         22.31501       20.61570       -5.19552
C         23.17794       21.42884       -4.55696
C         23.97180       21.13290       -3.37622
C         24.60347       19.90513       -3.21020
C         25.35175       19.64997       -2.06608
O         25.90967       18.40793       -1.99516
C         26.70768       18.08255       -0.88420
C         25.48612       20.62551       -1.08262
C         24.88078       21.86646       -1.26205
O         24.96415       22.89611       -0.37464
C         25.71543       22.72363        0.80126
C         24.13657       22.11975       -2.40816
C         21.59339       20.97990       -6.41542
C         21.53740       22.05259       -7.30799
C         20.65175       21.82844       -8.34308
C         20.33967       22.69920       -9.42847
C         20.84736       23.94897       -9.69199
C         20.31433       24.52707      -10.85764
C         19.40818       23.72560      -11.47751
S         19.18423       22.23864      -10.64738
H         -2.85279       -3.64215        2.14462
H         -1.75304       -6.00564        2.22280
H          2.46551       -7.61572        2.14770
H         -0.69339       -7.15985        0.39431
H         -4.37703       -9.17518       -0.81264
H         -4.28269       -9.70307        0.88428
H         -3.37839      -10.58412       -0.38245
H         -2.41754      -10.82401        1.73376
H         -1.08398      -13.08938        4.20405
H         -1.45945      -12.82991        2.48383
H         -2.39131      -11.97265        3.74669
H          1.25645       -9.47929        3.43226
H          4.46893       -5.91297        1.88730
H          6.85276       -5.31665        2.02642
H          9.12191       -4.11773        1.75757
H         10.87857       -2.43190        1.60407
H         14.63403       -0.00816        1.14338
H         12.42172       -2.48755       -0.25134
H         11.12000       -5.68629       -1.37144
H         12.02355       -4.21273       -1.79854
H         10.79875       -4.16661       -0.50078
H         14.26850       -5.84235        1.62171
H         16.97494       -5.74377        4.06162
H         16.46265       -6.15326        2.40572
H         15.27722       -6.17678        3.74195
H         15.43816       -1.86789        2.71113
H         14.41891        2.55627        0.45932
H         11.53599        6.04291       -1.19835
H         13.08987        8.08500       -1.62037
H         17.32357        6.88111        0.31515
H         21.11302        9.32744        0.63096
H         19.38779        6.37835       -0.64126
H         18.65799        2.11603        0.06729
H         18.52198        2.75158        1.72616
H         20.12542        2.34689        1.05008
H         20.26887        3.95252        2.77805
H         22.15170        6.35740        5.85883
H         21.09609        7.58090        5.11063
H         22.70120        7.23005        4.40715
H         21.18479        8.11589        2.82487
H         21.25438       11.62140       -0.66899
H         22.16475       13.91558       -0.93294
H         22.83419       16.17076       -2.00951
H         22.60211       18.40924       -3.00162
H         23.28145       22.43684       -4.94024
H         24.55222       19.14956       -3.97606
H         27.04977       17.06330       -1.05669
H         26.13521       18.11624        0.04900
H         27.57604       18.74450       -0.80339
H         26.06164       20.42607       -0.19465
H         25.64947       23.67128        1.33339
H         26.76627       22.50771        0.58145
H         25.30303       21.92865        1.43147
H         23.67122       23.08607       -2.51710
H         22.10894       22.95788       -7.21763
H         21.57756       24.43287       -9.06969
H         20.59331       25.50023      -11.22089
H         18.85342       23.91401      -12.37487
