238
d8a11.out	Energy:  -13025.3170681
C        -13.78265       -9.10024       -0.72121
S        -14.71777       -7.89561        0.09394
C        -13.59882       -6.65146       -0.40294
C        -13.71858       -5.29505       -0.11020
C        -14.83926       -4.79273        0.65577
C        -15.44987       -5.37357        1.73258
C        -16.55810       -4.65124        2.22612
C        -17.37805       -5.07814        3.39971
C        -16.80158       -3.51409        1.50798
C        -17.87991       -2.51376        1.72999
S        -15.65833       -3.31641        0.22401
C        -12.70330       -4.45738       -0.61519
C        -12.55824       -3.06059       -0.44479
C        -12.69227       -8.60548       -1.33956
C        -12.55886       -7.19307       -1.19307
C        -11.55827       -6.35298       -1.71501
C        -10.49688       -6.83072       -2.57886
C         -9.19247       -6.42498       -2.61061
C         -8.42605       -7.02545       -3.63402
C         -6.97826       -6.73895       -3.86815
C         -9.15868       -7.89096       -4.39604
C         -8.69484       -8.69511       -5.55871
S        -10.79948       -7.98203       -3.85099
C        -11.64829       -5.00307       -1.38858
S        -10.52359       -3.77038       -1.90182
C        -11.45688       -2.54679       -1.07151
C        -10.99286       -1.21294       -1.09886
C         -9.80221       -0.78830       -1.68587
N         -8.93647       -1.59123       -2.32734
C         -7.85637       -1.03895       -2.81364
C         -6.90053       -1.93284       -3.53006
C         -7.60155        0.36477       -2.66196
C         -6.35844        0.98515       -3.20949
N         -8.43442        1.16079       -2.04186
C         -9.55882        0.61113       -1.54106
C        -10.58302        1.26684       -0.85071
S        -11.81489        0.13426       -0.38704
C        -10.64844        2.64387       -0.53788
S        -12.02022        3.34681        0.29598
C        -11.27757        4.92569        0.24527
C        -11.86255        6.10523        0.68523
C        -13.19936        6.15545        1.23773
C        -14.16980        7.09219        1.01197
C        -15.37674        6.84372        1.70148
C        -16.58716        7.71605        1.60996
C        -15.31793        5.70998        2.46320
C        -16.38855        5.14057        3.32494
S        -13.77915        4.92872        2.32766
C        -11.09060        7.28026        0.54564
C        -11.41309        8.58122        0.98501
C         -9.68503        3.57542       -0.82235
C         -9.99962        4.87240       -0.36819
C         -9.22436        6.04574       -0.50285
C         -7.89647        5.99620       -1.07570
C         -6.93658        5.03695       -0.90437
C         -5.74510        5.28350       -1.62052
C         -4.55244        4.38283       -1.59232
C         -5.80219        6.44228       -2.34383
C         -4.74425        7.01987       -3.21583
S         -7.32194        7.24605       -2.14273
C         -9.80217        7.22203       -0.04507
S         -9.04092        8.79178       -0.05738
C        -10.43173        9.50395        0.73572
C        -10.48299       10.88257        1.04390
C        -11.57797       11.59966        1.53517
N        -12.80226       11.11427        1.82236
C        -13.69335       11.96310        2.26732
C        -15.04407       11.41396        2.58952
C        -13.40076       13.35615        2.44385
C        -14.43144       14.31149        2.94507
N        -12.21880       13.84487        2.17277
C        -11.29029       12.98667        1.71835
C         -9.98088       13.33360        1.38751
S         -9.12030       11.93735        0.83206
C         -9.41670       14.62217        1.49673
S        -10.43309       15.95432        1.99274
C         -9.07248       17.04810        1.91738
C         -9.12196       18.41203        2.18523
C        -10.36900       19.06343        2.52623
C        -11.40263       18.56502        3.27071
C        -12.51240       19.43156        3.37176
C        -13.75520       19.10953        4.13640
C        -12.32661       20.59920        2.68561
C        -13.27028       21.74380        2.56652
S        -10.77612       20.64460        1.91820
C         -7.90226       19.11654        2.08448
C         -7.66941       20.48474        2.33569
C         -8.11809       15.00242        1.28852
C         -7.89050       16.37742        1.50971
C         -6.67419       17.08509        1.38763
C         -5.44726       16.45966        0.94094
C         -4.17439       16.69679        1.38039
C         -3.18175       15.96139        0.69670
C         -1.72201       16.04349        1.00385
C         -3.70442       15.16461       -0.28300
C         -2.96935       14.25652       -1.20379
S         -5.42726       15.30503       -0.36411
C         -6.71593       18.43666        1.70520
S         -5.35558       19.52843        1.64367
C         -6.36929       20.86820        2.14055
C         -5.85348       22.17181        2.31594
C         -6.57662       23.32902        2.62015
N         -7.90824       23.42764        2.80145
C         -8.38988       24.61273        3.07409
C         -9.86756       24.70905        3.26503
C         -7.55003       25.77107        3.18758
C         -8.11276       27.11389        3.51170
N         -6.25700       25.69518        3.01230
C         -5.74688       24.48607        2.72419
C         -4.39429       24.22559        2.50947
S         -4.16348       22.54245        2.16973
C         -3.35336       25.17542        2.58041
S         -3.75697       26.84506        2.90697
C         -2.06644       27.28220        2.84104
C         -1.56840       28.57398        2.95054
C         -2.43266       29.72388        3.11579
C         -2.33393       30.94418        2.50731
C         -3.35124       31.85300        2.87313
C         -3.46144       33.24467        2.33972
C         -4.22804       31.31576        3.77355
C         -5.41468       31.97325        4.38475
S         -3.81589       29.68079        4.17006
C         -0.16714       28.72100        2.86318
C          0.59731       29.89765        3.03232
C         -2.00568       24.97504        2.44291
C         -1.24277       26.15140        2.60689
C          0.15856       26.29825        2.51988
C          1.02242       25.14908        2.35101
C          0.91776       23.92191        2.94501
C          1.93453       23.01482        2.57414
C          2.03613       21.61579        3.08965
C          2.81829       23.56044        1.68548
C          4.00646       22.90686        1.07311
S          2.41282       25.20099        1.30606
C          0.65667       27.58984        2.63651
S          2.34869       28.02210        2.59788
C          1.94445       29.69240        2.91808
C          2.99704       30.63283        3.02192
C          4.35054       30.34689        2.88508
N          4.85746       29.12743        2.63433
C          6.15513       29.03435        2.53166
C          6.71764       27.68168        2.25101
C          7.00742       30.18648        2.68302
C          8.48955       30.05042        2.56279
N          6.53980       31.37890        2.92725
C          5.19325       31.49925        3.03537
C          4.47103       32.64172        3.28361
S          2.78693       32.32243        3.33243
H        -14.10935      -10.12062       -0.67459
H        -15.09491       -6.28026        2.18876
H        -17.00093       -6.01370        3.80291
H        -18.41874       -5.21712        3.10812
H        -17.34989       -4.32096        4.18309
H        -17.80848       -1.70783        1.00453
H        -17.80644       -2.09062        2.73262
H        -18.86007       -2.98326        1.63765
H        -13.22556       -2.44443        0.12977
H        -11.99269       -9.21667       -1.87889
H         -8.77665       -5.73560       -1.89825
H         -6.60415       -6.05150       -3.11462
H         -6.83227       -6.29312       -4.85203
H         -6.39258       -7.65697       -3.82874
H         -9.50623       -9.30198       -5.95156
H         -7.87516       -9.35258       -5.26595
H         -8.33042       -8.04192       -6.35257
H         -7.30278       -2.94209       -3.53870
H         -5.93121       -1.93214       -3.03323
H         -6.75471       -1.59291       -4.55430
H         -6.30333        0.83874       -4.28722
H         -5.47618        0.52906       -2.76229
H         -6.36391        2.04963       -2.99192
H        -14.03954        7.91791        0.33522
H        -16.41064        8.53663        0.91981
H        -16.83981        8.12610        2.58797
H        -17.44533        7.14348        1.25929
H        -16.04817        4.22369        3.79822
H        -17.27719        4.91981        2.73230
H        -16.67389        5.85148        4.10136
H        -12.31705        8.85128        1.49636
H         -8.79912        3.31163       -1.36724
H         -7.06101        4.19432       -0.24791
H         -4.76570        3.49200       -1.00775
H         -3.69755        4.89388       -1.14966
H         -4.27329        4.08378       -2.60242
H         -3.82979        7.18619       -2.64540
H         -5.07226        7.96722       -3.63467
H         -4.50741        6.33849       -4.03409
H        -15.04405       10.34169        2.41555
H        -15.80421       11.88120        1.96470
H        -15.29664       11.61031        3.63043
H        -14.75508       14.03200        3.94695
H        -15.30505       14.30745        2.29508
H        -14.00322       15.30968        2.96878
H        -11.36007       17.61316        3.76831
H        -13.66105       18.13934        4.61609
H        -14.61819       19.08867        3.47099
H        -13.94266       19.86302        4.90095
H        -12.85937       22.51052        1.91500
H        -13.46430       22.18365        3.54599
H        -14.22420       21.41022        2.15703
H         -8.40827       21.19172        2.66126
H         -7.35983       14.29699        1.00145
H         -3.95022       17.35538        2.20020
H         -1.54617       16.74810        1.81171
H         -1.16535       16.37142        0.12635
H         -1.33619       15.06748        1.29775
H         -2.25528       14.82025       -1.80539
H         -3.66067       13.74574       -1.86870
H         -2.41148       13.50971       -0.63735
H        -10.30997       23.72786        3.11577
H        -10.29789       25.41158        2.55296
H        -10.09983       25.06156        4.26903
H         -8.82471       27.42346        2.74782
H         -7.29953       27.83271        3.56090
H         -8.63338       27.08859        4.46789
H         -1.57632       31.17408        1.77892
H         -2.65895       33.44482        1.63513
H         -3.40408       33.97076        3.15044
H         -4.41577       33.38643        1.83321
H         -6.12744       32.26713        3.61310
H         -5.11776       32.87355        4.92379
H         -5.90871       31.29753        5.07751
H          0.17941       30.86133        3.26108
H         -1.59066       24.01222        2.20597
H          0.15625       23.68519        3.66702
H          1.23068       21.41085        3.78944
H          2.98852       21.46192        3.59628
H          1.97623       20.90104        2.26909
H          3.70916       22.01665        0.51773
H          4.71187       22.59731        1.84540
H          4.50901       23.59084        0.39475
H          5.89864       26.97273        2.16557
H          7.38383       27.37069        3.05464
H          7.28841       27.68944        1.32357
H          8.75749       29.66378        1.58068
H          8.86963       29.35850        3.31291
H          8.95015       31.02384        2.70461
H          4.83331       33.63715        3.43772
