214
d8a2.out	Energy:  -20728.1469250
C         -4.00430      -10.41392        0.11811
S         -3.26241       -8.85834        0.25619
C         -4.82277       -8.07843        0.19034
C         -5.04465       -6.70932        0.31333
C         -3.94101       -5.78829        0.48230
C         -2.70774       -5.83546       -0.10598
C         -1.82638       -4.81636        0.31696
C         -0.43049       -4.65540       -0.18999
C         -2.39092       -3.99114        1.24858
C         -1.76801       -2.81894        1.91996
S         -4.02043       -4.45561        1.60308
C         -6.39166       -6.29371        0.28119
C         -6.89762       -4.97324        0.31845
C         -5.34684      -10.36116        0.01562
C         -5.85929       -9.03014        0.04814
C         -7.20236       -8.61316        0.01329
C         -8.30842       -9.53231       -0.16240
C         -9.54157       -9.48501        0.42437
C        -10.42633      -10.49648       -0.01060
C        -11.82364      -10.65572        0.49330
C         -9.86352      -11.31501       -0.94875
C        -10.48968      -12.47767       -1.63369
S         -8.23199      -10.85263       -1.29679
C         -7.43046       -7.24515        0.14063
S         -8.99316       -6.47361        0.08790
C         -8.26006       -4.89462        0.22900
C         -9.07212       -3.70936        0.24539
C         -8.54262       -2.43500        0.37685
C         -9.32803       -1.28433        0.38657
C        -10.70893       -1.31204        0.26554
C        -11.30178       -2.59939        0.13905
C        -10.48764       -3.79160        0.12897
N        -11.17438       -4.91835        0.00908
Se       -12.88258       -4.55074       -0.10048
N        -12.60199       -2.82720        0.02680
C        -11.51692       -0.12505        0.26994
S        -13.25542       -0.22921        0.14870
C        -13.40400        1.50788        0.22301
C        -14.59412        2.22120        0.11637
C        -15.85619        1.53423       -0.05397
C        -16.24767        0.34454        0.49500
C        -17.52058       -0.09648        0.07248
C        -18.16294       -1.36106        0.54120
C        -18.10187        0.76129       -0.81870
C        -19.42914        0.62638       -1.47694
S        -17.08823        2.12838       -1.13520
C        -14.48616        3.62836        0.16256
C        -15.52774        4.58321        0.15170
C        -11.09224        1.17242        0.36802
C        -12.13525        2.12512        0.35433
C        -12.02695        3.53177        0.39882
C        -10.76480        4.21947        0.56621
C        -10.37335        5.40561        0.00990
C         -9.10085        5.84975        0.43050
C         -8.45899        7.11166       -0.04589
C         -8.51993        4.99792        1.32751
C         -7.19366        5.13824        1.98653
S         -9.53344        3.63253        1.65213
C        -13.21688        4.24482        0.29278
S        -13.36156        5.98143        0.36708
C        -15.10034        5.88007        0.25042
C        -15.90186        7.07134        0.26100
C        -17.28481        7.05440        0.15923
C        -18.06091        8.21126        0.17666
C        -17.51894        9.48194        0.29795
C        -16.10113        9.55245        0.39464
C        -15.29699        8.35421        0.37597
N        -13.99353        8.57236        0.47049
Se       -13.69796       10.29466        0.58861
N        -15.40442       10.67369        0.50500
C        -18.31595       10.67603        0.32260
S        -17.55698       12.24469        0.41885
C        -19.11104       13.03444        0.39998
C        -19.31360       14.40436        0.50676
C        -18.21954       15.34012        0.65543
C        -18.14824       16.42470        1.48600
C        -16.92986       17.13298        1.40100
C        -16.60864       18.34759        2.21060
C        -16.07151       16.58161        0.49042
C        -14.70800       17.05541        0.13080
S        -16.74959       15.17681       -0.26003
C        -20.65436       14.84408        0.48430
C        -21.12830       16.17489        0.46773
C        -19.68147       10.77090        0.27956
C        -20.16998       12.09596        0.31244
C        -21.51301       12.53335        0.31755
C        -22.63783       11.62977        0.20821
C        -23.86417       11.74226        0.80321
C        -24.77928       10.73095        0.43894
C        -26.17480       10.64113        0.96430
C        -24.24838        9.84242       -0.45348
C        -24.91185        8.65693       -1.05970
S        -22.60902       10.23943       -0.84300
C        -21.71421       13.90772        0.41000
S        -23.26199       14.71421        0.37553
C        -22.49203       16.28172        0.41207
C        -23.27720       17.48377        0.39594
C        -22.71530       18.75160        0.39441
C        -23.47547       19.91860        0.38508
C        -24.86203       19.91583        0.38086
C        -25.48715       18.63781        0.37758
C        -24.69903       17.42825        0.38461
N        -25.41369       16.31281        0.38340
Se       -27.11816       16.71297        0.36975
N        -26.79635       18.43422        0.37122
C        -25.64390       21.12031        0.37309
S        -27.38615       21.05004        0.29027
C        -27.49729       22.79030        0.33774
C        -28.67800       23.52484        0.28415
C        -29.95798       22.86026        0.16042
C        -30.35157       21.68239        0.73247
C        -31.64685       21.26232        0.35924
C        -32.29467       20.01333        0.86101
C        -32.24388       22.12434       -0.51716
C        -33.59599       22.00903       -1.12665
S        -31.21689       23.46968       -0.88055
C        -28.54261       24.92866        0.32987
C        -29.56655       25.90411        0.31734
C        -25.19025       22.40991        0.43448
C        -26.21245       23.38508        0.39724
C        -26.07576       24.78949        0.41758
C        -24.79120       25.45612        0.42253
C        -24.44770       26.61636        1.05976
C        -23.12724       27.04691        0.80616
C        -22.52540       28.28103        1.39443
C        -22.45890       26.21113       -0.04396
C        -21.06144       26.34317       -0.53664
S        -23.44976       24.87756       -0.52959
C        -27.25877       25.52310        0.40171
S        -27.36914       27.26345        0.41707
C        -29.11140       27.19283        0.34539
C        -29.89409       28.40178        0.32906
C        -31.26539       28.40220        0.16106
C        -32.02356       29.58432        0.14384
C        -31.45073       30.81729        0.28919
C        -30.05529       30.88413        0.45934
C        -29.26793       29.67349        0.47930
N        -27.96887       29.87060        0.64586
Se       -27.65980       31.58920        0.78555
N        -29.35000       32.00076        0.60992
H         -3.37609      -11.28312        0.12066
H         -2.44332       -6.56185       -0.85333
H         -0.20413       -5.42518       -0.92223
H          0.28410       -4.73109        0.62920
H         -0.30137       -3.67837       -0.65527
H         -0.87083       -3.12258        2.46077
H         -2.46307       -2.36626        2.62210
H         -1.47484       -2.06896        1.18379
H         -6.26431       -4.10972        0.39280
H         -5.96547      -11.23524       -0.06676
H         -9.80499       -8.76259        1.17560
H        -12.06155       -9.86419        1.19812
H        -11.94506      -11.61804        0.99074
H        -12.53399      -10.61541       -0.33186
H        -11.37296      -12.16176       -2.19020
H        -10.80553      -13.22520       -0.90479
H         -9.78840      -12.93799       -2.32453
H         -7.47524       -2.31865        0.47830
H         -8.83019       -0.33386        0.49535
H        -15.65439       -0.19214        1.21285
H        -17.49502       -1.89634        1.20995
H        -18.40112       -2.00472       -0.30504
H        -19.09237       -1.14703        1.06894
H        -19.48040       -0.30538       -2.04176
H        -19.60581        1.45683       -2.15552
H        -20.22517        0.60747       -0.73069
H        -16.56485        4.31322        0.08984
H        -10.05602        1.44529        0.43095
H        -10.96642        5.93742       -0.71171
H         -9.12749        7.64283       -0.71731
H         -7.52986        6.89468       -0.57303
H         -8.22039        7.76024        0.79645
H         -7.14942        6.06606        2.55836
H         -6.39809        5.16902        1.24057
H         -7.01037        4.30433        2.65901
H        -17.79110        6.10723        0.06042
H        -19.13050        8.10408        0.08874
H        -18.93112       16.68329        2.17756
H        -17.43539       18.59235        2.87198
H        -16.41564       19.20100        1.56063
H        -15.71638       18.18081        2.81332
H        -14.74503       18.07755       -0.24804
H        -14.27185       16.41490       -0.63083
H        -14.05912       17.04861        1.00760
H        -20.46766       17.02144        0.46760
H        -20.32512        9.91261        0.24223
H        -24.10161       12.51285        1.51394
H        -26.38353       11.48060        1.62129
H        -26.31699        9.71470        1.52077
H        -26.89261       10.65087        0.14467
H        -25.80571        8.95946       -1.60624
H        -25.21833        7.95333       -0.28444
H        -24.23814        8.15021       -1.74533
H        -21.64110       18.84888        0.39604
H        -22.95337       20.86225        0.37644
H        -29.74319       21.13965        1.43290
H        -31.60824       19.46470        1.49955
H        -32.58647       19.37365        0.02873
H        -33.19341       20.24913        1.43102
H        -33.67882       21.08237       -1.69565
H        -33.78829       22.84581       -1.79274
H        -34.36378       21.99334       -0.35199
H        -30.60993       25.65172        0.30476
H        -24.14986       22.66028        0.51906
H        -25.11163       27.13831        1.72466
H        -23.25851       28.80360        2.00220
H        -22.18211       28.95089        0.60665
H        -21.66613       28.03066        2.01659
H        -20.92730       27.29703       -1.04752
H        -20.82179       25.53978       -1.22787
H        -20.35797       26.31034        0.29653
H        -31.78109       27.46412        0.03009
H        -33.09200       29.50483        0.00792
H        -32.02679       31.72804        0.27492
