210
d8a3.out	Energy:  -20792.2645028
C          0.83280       -4.84028        0.10302
S         -0.76611       -5.41428        0.42296
C         -1.41475       -3.80826        0.20625
C         -2.76512       -3.47229        0.25503
C         -3.77198       -4.47421        0.53120
C         -3.69806       -5.52298        1.40562
C         -4.83193       -6.36419        1.39494
C         -4.98833       -7.56699        2.26686
C         -5.77445       -5.95860        0.49185
C         -7.08601       -6.59666        0.20008
S         -5.27865       -4.52625       -0.34356
C         -3.07816       -2.12098        0.00076
C         -4.34673       -1.49700        0.04836
C          0.88927       -3.51617       -0.14152
C         -0.38711       -2.88176       -0.08638
C         -0.70072       -1.53319       -0.33682
C          0.30647       -0.52860       -0.61126
C          0.23301        0.51785       -1.48694
C          1.36503        1.36244       -1.47232
C          1.52099        2.56343       -2.34696
C          2.30504        0.96064       -0.56576
C          3.61426        1.60202       -0.26923
S          1.80759       -0.47066        0.27143
C         -2.05021       -1.19246       -0.29355
S         -2.69333        0.41097       -0.52901
C         -4.31553       -0.15494       -0.21224
C         -5.42166        0.75745       -0.25032
C         -6.73943        0.37386       -0.01982
N         -7.79626        1.17289       -0.03927
C         -7.67136        2.46448       -0.29449
C         -6.38110        3.01281       -0.55684
C         -5.23786        2.13752       -0.53458
N         -4.08571        2.73950       -0.79529
Se        -4.37876        4.44414       -1.08001
N         -6.10558        4.27713       -0.83096
C         -8.85097        3.27325       -0.30061
S         -8.78201        4.98513       -0.60664
C        -10.51230        5.11014       -0.41658
C        -11.23802        6.29315       -0.47012
C        -10.61236        7.57922       -0.69041
C        -10.88224        8.76384       -0.06137
C        -10.08506        9.84194       -0.50259
C        -10.18720       11.23327        0.03314
C         -9.20523        9.47016       -1.48150
C         -8.21996       10.33325       -2.18637
S         -9.34057        7.78637       -1.85900
C        -12.63281        6.18413       -0.27637
C        -13.60342        7.20480       -0.38249
C        -10.12755        2.82891       -0.07513
C        -11.10101        3.84667       -0.14403
C        -12.49421        3.74099        0.07119
C        -13.15506        2.48054        0.32569
C        -14.23110        2.24663        1.13878
C        -14.68568        0.91137        1.12295
C        -15.83631        0.41153        1.93399
C        -13.95565        0.12176        0.27768
C        -14.14529       -1.32739        0.00097
S        -12.69283        1.01548       -0.49573
C        -13.22058        4.92583        0.00366
S        -14.95273        5.06316        0.16592
C        -14.88648        6.77544       -0.17126
C        -16.08888        7.55564       -0.18740
C        -16.11046        8.93142       -0.40029
N        -17.19025        9.69831       -0.41940
C        -18.39500        9.18613       -0.22765
C        -18.54052        7.78645        0.00542
C        -17.36149        6.96066        0.02719
N        -17.59883        5.67674        0.25544
Se       -19.32371        5.43660        0.45393
N        -19.67473        7.13812        0.21382
C        -19.52228       10.06492       -0.26089
S        -21.14292        9.47419       -0.02740
C        -21.78490       11.08749       -0.20853
C        -23.12445       11.43597       -0.07204
C        -24.12696       10.43259        0.21364
C        -24.18525        9.14731       -0.25066
C        -25.26066        8.39419        0.26757
C        -25.53688        6.97274       -0.09883
C        -26.02393        9.10990        1.14742
C        -27.22867        8.64912        1.88799
S        -25.42965       10.72431        1.33476
C        -23.43097       12.80805       -0.21059
C        -24.70314       13.42021       -0.18537
C        -19.48328       11.41775       -0.47606
C        -20.75363       12.03006       -0.46143
C        -21.06244       13.40218       -0.60425
C        -20.06212       14.40319       -0.89941
C        -20.00945       15.69664       -0.45463
C        -18.93572       16.44391       -0.98233
C        -18.66434       17.87217       -0.63915
C        -18.16910       15.71505       -1.84965
C        -16.96471       16.16869       -2.59532
S        -18.75657       14.09636       -2.01180
C        -22.40195       13.75000       -0.46306
S        -23.04935       15.36077       -0.63696
C        -24.67424       14.77375       -0.39032
C        -25.78302       15.68176       -0.40442
C        -27.09759       15.29167       -0.16308
N        -28.15494       16.08938       -0.15592
C        -28.03487       17.38557       -0.39019
C        -26.74899       17.94096       -0.65861
C        -25.60409       17.06791       -0.66157
N        -24.45438       17.67733       -0.91453
Se       -24.75185       19.38577       -1.16732
N        -26.47753       19.21116       -0.91033
C        -29.21471       18.19340       -0.35720
S        -29.15818       19.90393       -0.67418
C        -30.88629       20.02695       -0.45989
C        -31.62540       21.20138       -0.55763
C        -30.97974       22.46465       -0.84298
C        -29.92680       22.69970       -1.68381
C        -29.48545       24.04028       -1.69551
C        -28.36021       24.54090       -2.54064
C        -30.20190       24.83416       -0.84359
C        -30.02114       26.28834       -0.58951
S        -31.43643       23.93689       -0.02849
C        -33.01595       21.08439       -0.33975
C        -33.99501       22.10122       -0.40473
C        -30.48398       17.74991       -0.09504
C        -31.45731       18.77051       -0.12596
C        -32.84442       18.66014        0.11868
C        -33.47400       17.41984        0.51382
C        -34.71398       16.95780        0.16382
C        -35.06461       15.73355        0.77056
C        -36.35905       15.02618        0.53528
C        -34.08622       15.26509        1.60399
C        -34.10385       14.01490        2.40944
S        -32.71730       16.32162        1.63502
C        -33.58786       19.82875       -0.01544
S        -35.30806       19.96407        0.23627
C        -35.26131       21.67318       -0.11333
C        -36.46607       22.45535       -0.08259
C        -36.49130       23.82832       -0.28074
N        -37.58638       24.59387       -0.26098
C        -38.75835       24.06959       -0.03735
C        -38.91020       22.68466        0.19141
C        -37.73178       21.85504        0.16774
N        -37.96349       20.56898        0.38980
Se       -39.68025       20.33424        0.64224
N        -40.04148       22.03132        0.43286
H          1.64260       -5.54315        0.12069
H         -2.86651       -5.67331        2.07052
H         -4.11145       -7.69378        2.89532
H         -5.11695       -8.46339        1.66082
H         -5.86656       -7.46720        2.90440
H         -6.94288       -7.62538       -0.13256
H         -7.61389       -6.04854       -0.57572
H         -7.70665       -6.62028        1.09681
H         -5.25130       -2.02481        0.28389
H          1.80217       -2.99834       -0.36944
H         -0.59762        0.66687       -2.15292
H          0.62822        2.70902       -2.94832
H          2.37717        2.44585       -3.01134
H          1.68714        3.45576       -1.74432
H          3.46616        2.62088        0.09202
H          4.22613        1.65398       -1.17104
H          4.15354        1.03830        0.48790
H         -6.97347       -0.65846        0.19831
H        -11.60241        8.85283        0.73317
H        -10.95130       11.28787        0.80373
H        -10.44273       11.93193       -0.76327
H         -9.23616       11.54973        0.46047
H         -8.72841       11.13379       -2.72491
H         -7.64058        9.74841       -2.89514
H         -7.53794       10.79420       -1.47123
H        -13.35700        8.21730       -0.64151
H        -10.32247        1.79630        0.14400
H        -14.66872        3.00308        1.76472
H        -16.29054        1.22925        2.48619
H        -15.50556       -0.34918        2.64110
H        -16.59098       -0.03826        1.28969
H        -15.13576       -1.50913       -0.41862
H        -14.06322       -1.90480        0.92284
H        -13.39696       -1.68286       -0.70251
H        -15.18756        9.46817       -0.56923
H        -23.49502        8.75492       -0.97516
H        -24.77368        6.60454       -0.77832
H        -26.51029        6.88292       -0.58092
H        -25.54668        6.34411        0.79096
H        -26.98525        7.79003        2.51376
H        -28.00998        8.34254        1.19164
H        -27.61640        9.44320        2.52013
H        -25.61514       12.87389       -0.03762
H        -18.55011       11.92813       -0.62099
H        -20.70106       16.09865        0.26336
H        -19.43210       18.25071        0.02952
H        -18.65062       18.48527       -1.53968
H        -17.69395       17.97241       -0.15312
H        -17.20825       17.02273       -3.22874
H        -16.57818       15.36779       -3.22025
H        -16.18246       16.48092       -1.90177
H        -27.32625       14.25650        0.04678
H        -29.49631       21.93930       -2.30973
H        -27.91094       23.72056       -3.09290
H        -27.59517       25.00698       -1.92072
H        -28.71598       25.28880       -3.24924
H        -29.02095       26.48552       -0.20177
H        -30.75162       26.64486        0.13180
H        -30.13659       26.85392       -1.51493
H        -33.77019       23.11604       -0.67284
H        -30.67831       16.71266        0.10167
H        -35.35024       17.46093       -0.54156
H        -36.99081       15.60890       -0.12895
H        -36.88713       14.87288        1.47588
H        -36.18566       14.04781        0.08744
H        -34.97491       13.99678        3.06509
H        -33.20590       13.93878        3.01651
H        -34.15980       13.14201        1.75762
H        -35.57621       24.37149       -0.46627
H        -39.61224       24.73100       -0.03141
