254
d8a4.out	Energy:  -13767.9583873
C         -9.22985      -11.79327       -6.44851
S        -10.71334      -11.81493       -5.56314
C        -10.72925      -10.07049       -5.50077
C        -11.71572       -9.29383       -4.90188
C        -12.88860       -9.85903       -4.27348
C        -14.17587       -9.39791       -4.32365
C        -15.09243      -10.17224       -3.58070
C        -16.55243       -9.86975       -3.48123
C        -14.49388      -11.23203       -2.95720
C        -15.13775      -12.25337       -2.08830
S        -12.79637      -11.29273       -3.28939
C        -11.52263       -7.89620       -4.95190
C        -12.32888       -6.88901       -4.37833
C         -8.76917      -10.55082       -6.69946
C         -9.61428       -9.52690       -6.18146
C         -9.44781       -8.13136       -6.26581
C         -8.35784       -7.50807       -6.99020
C         -7.65797       -6.38589       -6.64746
C         -6.70322       -5.98489       -7.60835
C         -5.81886       -4.78971       -7.45614
C         -6.68407       -6.80629       -8.69985
C         -5.81976       -6.69565       -9.90596
S         -7.83630       -8.08993       -8.54713
C        -10.40513       -7.34965       -5.62799
S        -10.41990       -5.60145       -5.57611
C        -11.88959       -5.61609       -4.63220
C        -12.48840       -4.39349       -4.21226
C        -13.69878       -4.31682       -3.49079
N        -14.46348       -5.34212       -3.10921
S        -15.75157       -4.78108       -2.33099
N        -15.42066       -3.21255       -2.43125
C        -14.26990       -3.04683       -3.08557
C        -11.88421       -3.15838       -4.52438
N        -10.74407       -3.16871       -5.23879
C        -10.14562       -2.05144       -5.54749
C         -8.89094       -2.13839       -6.34854
C        -10.69174       -0.80188       -5.12244
C        -10.03748        0.50030       -5.43831
N        -11.80096       -0.77023       -4.43603
C        -12.43860       -1.91017       -4.11548
C        -13.64119       -1.81838       -3.38373
C        -14.15886       -0.54784       -3.00899
S        -13.32846        0.91551       -3.47212
C        -14.55352        1.88986       -2.68688
C        -14.52220        3.27158       -2.55649
C        -13.43151        4.03766       -3.11847
C        -12.76300        3.80873       -4.28949
C        -11.69188        4.69696       -4.52734
C        -10.82051        4.64571       -5.74045
C        -11.53479        5.60623       -3.51881
C        -10.52125        6.69195       -3.42385
S        -12.71596        5.38011       -2.27222
C        -15.58812        3.86405       -1.83828
C        -15.82302        5.23159       -1.60737
C        -15.30772       -0.28969       -2.30201
C        -15.57128        1.08124       -2.12085
C        -16.65334        1.67334       -1.42630
C        -17.72562        0.86395       -0.89343
C        -18.31199       -0.23850       -1.45396
C        -19.32799       -0.81307       -0.66146
C        -20.11140       -2.02334       -1.05490
C        -19.51203       -0.14084        0.51569
C        -20.48084       -0.46112        1.59826
S        -18.44692        1.21614        0.65093
C        -16.62101        3.05466       -1.29656
S        -17.84877        4.02495       -0.52421
C        -16.97944        5.49248       -0.91287
C        -17.50090        6.75783       -0.51151
C        -18.77366        6.83853        0.09241
N        -19.57256        5.79832        0.33276
S        -20.92978        6.31795        1.01321
N        -20.58670        7.88828        1.04170
C        -19.37484        8.08198        0.51621
C        -16.82053        7.99076       -0.66668
N        -15.58799        8.02671       -1.21562
C        -14.95803        9.16206       -1.35002
C        -13.59664        9.12862       -1.96074
C        -15.55461       10.38709       -0.92794
C        -14.87149       11.70459       -1.07088
N        -16.74281       10.37397       -0.39186
C        -17.41391        9.21905       -0.23461
C        -18.69295        9.30494        0.35931
C        -19.22290       10.56441        0.75264
S        -18.28943       12.02384        0.55279
C        -19.58075       12.97726        1.25545
C        -19.55490       14.35001        1.46076
C        -18.39970       15.13713        1.08804
C        -17.08108       14.77875        1.15342
C        -16.19072       15.75463        0.65625
C        -14.70540       15.59224        0.62948
C        -16.83959       16.86674        0.19663
C        -16.23660       18.09449       -0.38970
S        -18.55489       16.72237        0.38198
C        -20.71532       14.92433        2.03273
C        -20.92704       16.26755        2.39028
C        -20.45454       10.80893        1.30949
C        -20.70262       12.16947        1.57259
C        -21.88396       12.75088        2.09299
C        -23.05787       11.94675        2.34717
C        -23.55123       10.91004        1.60206
C        -24.71380       10.31882        2.14011
C        -25.43483        9.17055        1.51185
C        -25.10589       10.91217        3.30859
C        -26.27366       10.55339        4.15756
S        -24.05495       12.21478        3.74886
C        -21.84625       14.11846        2.32650
S        -23.15947       15.07693        2.96194
C        -22.17706       16.52431        2.89764
C        -22.70986       17.76776        3.35078
C        -24.05773       17.85301        3.74779
N        -24.94130       16.85349        3.72959
S        -26.36108       17.39516        4.24485
N        -25.93817       18.91891        4.52308
C        -24.64771       19.07853        4.22049
C        -21.97387       18.97668        3.43951
N        -20.68346       18.98266        3.04379
C        -19.97394       20.07390        3.10952
C        -18.55892       20.00862        2.63880
C        -20.54820       21.27866        3.61046
C        -19.76261       22.54377        3.70345
N        -21.79115       21.30482        4.00319
C        -22.55378       20.19205        3.93978
C        -23.90747       20.26886        4.35302
C        -24.53124       21.44518        4.87030
S        -26.26591       21.46934        5.10350
C        -26.20063       23.10040        5.71754
C        -27.29643       23.86064        6.11113
C        -28.64530       23.35703        5.97534
C        -29.09034       22.07390        6.14247
C        -30.46255       21.89924        5.86432
C        -31.17851       20.59337        5.98251
C        -31.06694       23.06017        5.46733
C        -32.49198       23.25831        5.08874
S        -29.95232       24.38187        5.44611
C        -27.01399       25.15245        6.61263
C        -27.92121       26.10574        7.11736
C        -23.95161       22.62548        5.26223
C        -24.86671       23.58458        5.74060
C        -24.59227       24.88524        6.22127
C        -23.26015       25.45065        6.24392
C        -22.70483       26.25090        7.20316
C        -21.39965       26.69609        6.89956
C        -20.58918       27.57495        7.79633
C        -20.96158       26.23969        5.68794
C        -19.64644       26.49935        5.04117
S        -22.15396       25.24848        4.91605
C        -25.67870       25.62577        6.66774
S        -25.60115       27.25269        7.30854
C        -27.33247       27.27766        7.51817
C        -27.98104       28.42547        8.06190
C        -29.37505       28.51990        8.25113
N        -30.29773       27.59552        7.97467
S        -31.74596       28.17093        8.35743
N        -31.30574       29.61288        8.89622
C        -29.97298       29.72221        8.80120
C        -27.22947       29.55668        8.43907
N        -25.89472       29.50823        8.26753
C        -25.15307       30.52408        8.60504
C        -23.68245       30.40910        8.38714
C        -25.75441       31.69939        9.16518
C        -24.92255       32.87132        9.56822
N        -27.04156       31.78380        9.33963
C        -27.83076       30.73575        8.98881
C        -29.20589       30.82127        9.16893
H         -8.78436      -12.72909       -6.72442
H        -14.47011       -8.54813       -4.91332
H        -16.78445       -8.95178       -4.01411
H        -16.84860       -9.75460       -2.43898
H        -17.14207      -10.68133       -3.90740
H        -15.58816      -11.78213       -1.21370
H        -14.40666      -12.98420       -1.75358
H        -15.92863      -12.77161       -2.63172
H        -13.19511       -7.07788       -3.77337
H         -7.85347      -10.35727       -7.22686
H         -7.79772       -5.87434       -5.71235
H         -5.96197       -4.33775       -6.47857
H         -6.04546       -4.04703       -8.22135
H         -4.77157       -5.06991       -7.56433
H         -6.03312       -7.50092      -10.60380
H         -4.76630       -6.74421       -9.62688
H         -5.98730       -5.74258      -10.40915
H         -8.69969       -3.17925       -6.59443
H         -8.05154       -1.73818       -5.78079
H         -8.98435       -1.55798       -7.26525
H         -9.01632        0.51384       -5.06035
H        -10.60674        1.30314       -4.97823
H         -9.99920        0.65259       -6.51639
H        -13.05296        3.04274       -4.98568
H        -11.16815        3.87338       -6.42083
H         -9.78949        4.42753       -5.46166
H        -10.82921        5.60280       -6.26098
H        -10.58426        7.19030       -2.46020
H        -10.67786        7.43218       -4.21019
H         -9.51673        6.28599       -3.54450
H        -15.18681        6.02816       -1.94090
H        -15.91458       -1.08203       -1.90703
H        -18.05329       -0.60650       -2.43080
H        -19.79216       -2.37936       -2.03018
H        -21.17611       -1.79561       -1.09526
H        -19.96957       -2.82261       -0.32801
H        -21.50143       -0.44347        1.21407
H        -20.39927        0.26010        2.40675
H        -20.29252       -1.45862        1.99721
H        -13.31438        8.09882       -2.15928
H        -12.86915        9.57988       -1.28797
H        -13.58767        9.69131       -2.89345
H        -13.95103       11.71793       -0.48840
H        -15.53563       12.48862       -0.71852
H        -14.61263       11.88729       -2.11263
H        -16.74957       13.85093        1.58275
H        -14.42470       14.62969        1.04800
H        -14.22197       16.38036        1.20650
H        -14.33247       15.65206       -0.39292
H        -15.58434       18.58423        0.33491
H        -17.01276       18.79356       -0.68938
H        -15.63410       17.84398       -1.26338
H        -20.19859       17.04915        2.30058
H        -21.13721       10.01198        1.53598
H        -23.11911       10.60354        0.66625
H        -24.92631        8.85615        0.60467
H        -26.45805        9.45040        1.26189
H        -25.47898        8.32572        2.19877
H        -27.19981       10.63967        3.58805
H        -26.33197       11.21024        5.02105
H        -26.19135        9.52281        4.50507
H        -18.33905       19.00581        2.28403
H        -17.87796       20.26246        3.44999
H        -18.39803       20.71868        1.82886
H        -18.92018       22.41554        4.38206
H        -20.40277       23.34083        4.06979
H        -19.36925       22.81719        2.72558
H        -28.45997       21.27528        6.48905
H        -30.48571       19.81034        6.27703
H        -31.63245       20.31959        5.03058
H        -31.97421       20.65728        6.72469
H        -32.67737       24.29809        4.83296
H        -33.14854       22.97713        5.91300
H        -32.74899       22.63524        4.23118
H        -28.98076       25.95612        7.20476
H        -22.89003       22.76888        5.20752
H        -23.20507       26.48808        8.12464
H        -21.12282       27.75967        8.72445
H        -20.38674       28.53109        7.31344
H        -19.63160       27.10970        8.02799
H        -19.61941       26.06971        4.04339
H        -18.83739       26.06462        5.63038
H        -19.46454       27.57168        4.96671
H        -23.46733       29.44748        7.92963
H        -23.15076       30.48957        9.33462
H        -23.33116       31.20795        7.73563
H        -24.19055       32.57678       10.31882
H        -25.56708       33.64455        9.97594
H        -24.38371       33.26673        8.70832
H        -29.65457       31.70940        9.57933
