202
d8a6.out	Energy:  -13993.8631561
C          2.63899       -1.88979        1.31206
S          1.27304       -2.92282        1.54186
C          0.18719       -1.59744        1.21596
C         -1.20103       -1.67919        1.20559
C         -1.91250       -2.91503        1.45454
C         -3.00248       -3.41278        0.79629
C         -3.46649       -4.64564        1.30558
C         -4.63723       -5.39180        0.75295
C         -2.72414       -5.08252        2.36722
C         -2.91867       -6.32699        3.15840
S         -1.43610       -3.98811        2.74004
C         -1.89493       -0.48214        0.93607
C         -3.29303       -0.27698        0.91891
C          2.30907       -0.62129        0.99557
C          0.90089       -0.41404        0.91492
C          0.20879        0.77331        0.60736
C          0.88323        1.99574        0.21907
C          0.54235        3.28436        0.52034
C          1.36529        4.25645       -0.09085
C          1.19308        5.72920        0.09108
C          2.33676        3.70073       -0.87465
C          3.37480        4.40614       -1.67350
S          2.25262        1.97200       -0.85876
C         -1.18062        0.71022        0.65858
S         -2.26703        2.04631        0.36395
C         -3.65323        1.01092        0.62771
C         -4.95881        1.54414        0.54584
C         -5.34909        2.87963        0.48372
N         -4.68799        4.03670        0.46893
S         -5.77420        5.22223        0.41079
N         -7.12903        4.35013        0.40548
C         -6.78478        3.06328        0.44717
C         -7.49682        1.86333        0.45005
S         -6.37755        0.53533        0.52595
C         -8.89629        1.69697        0.39328
S         -9.62913        0.12605        0.15402
C        -11.22352        0.83177        0.21337
C        -12.41165        0.13466        0.05213
C        -12.45379       -1.28068       -0.24900
C        -13.27201       -1.93102       -1.13078
C        -13.06126       -3.32619       -1.18766
C        -13.82991       -4.25222       -2.07351
C        -12.07381       -3.73809       -0.33674
C        -11.58411       -5.12604       -0.12116
S        -11.38582       -2.40972        0.53484
C        -13.60147        0.88589        0.18437
C        -14.92948        0.41627        0.13027
C         -9.83028        2.69518        0.50522
C        -11.15984        2.23705        0.40586
C        -12.34942        2.99334        0.50586
C        -12.34390        4.43188        0.66270
C        -13.19538        5.20262        1.40595
C        -12.95925        6.58975        1.29668
C        -13.74843        7.63040        2.02175
C        -11.92539        6.87789        0.44929
C        -11.39585        8.22010        0.08770
S        -11.22449        5.44136       -0.21149
C        -13.54132        2.28176        0.42925
S        -15.14106        2.96928        0.57388
C        -15.86731        1.39910        0.31551
C        -17.27065        1.25642        0.32738
C        -18.23513        2.16310        0.76002
N        -18.18726        3.39111        1.27508
S        -19.69834        3.85333        1.58377
N        -20.49036        2.54082        1.09202
C        -19.58933        1.66284        0.65381
C        -19.67127        0.38459        0.10608
S        -18.06223       -0.19134       -0.23524
C        -20.82275       -0.37495       -0.18443
S        -22.38734        0.14602        0.39636
C        -23.14908       -1.24283       -0.34100
C        -24.50663       -1.53339       -0.28646
C        -25.42896       -0.67004        0.41857
C        -25.22129        0.00023        1.59289
C        -26.30492        0.81113        1.99223
C        -26.32019        1.62681        3.24358
C        -27.34356        0.76829        1.10376
C        -28.64174        1.48905        1.19130
S        -27.00046       -0.28309       -0.22627
C        -24.92795       -2.69338       -0.97470
C        -26.22807       -3.23307       -1.04283
C        -20.89635       -1.53695       -0.90973
C        -22.20726       -2.03432       -1.04851
C        -22.63697       -3.16144       -1.78688
C        -21.73654       -3.94588       -2.60439
C        -21.75990       -5.29433       -2.83238
C        -20.77974       -5.74326       -3.74394
C        -20.60543       -7.17100       -4.14726
C        -20.00691       -4.72314       -4.22414
C        -18.88669       -4.81368       -5.19864
S        -20.47453       -3.20032       -3.54846
C        -23.99150       -3.45968       -1.71718
S        -24.77821       -4.78040       -2.54546
C        -26.32201       -4.33967       -1.84845
C        -27.49271       -5.08423       -2.09772
C        -28.73797       -4.92963       -1.48417
N        -29.21731       -4.11032       -0.54955
S        -30.76184       -4.49727       -0.30016
N        -30.90690       -5.71309       -1.34735
C        -29.73097       -5.87190       -1.95299
C        -29.25472       -6.73409       -2.94297
S        -27.58325       -6.37613       -3.25702
C        -29.97841       -7.73859       -3.61822
S        -29.30660       -8.60350       -4.98349
C        -30.76952       -9.54143       -5.14783
C        -31.00142      -10.49630       -6.12918
C        -30.02515      -10.75869       -7.16548
C        -28.66251      -10.78580       -7.05731
C        -27.99094      -10.99501       -8.28181
C        -26.50534      -11.07297       -8.41699
C        -28.85236      -11.11534       -9.33615
C        -28.51148      -11.33602      -10.76710
S        -30.50110      -10.98524       -8.82712
C        -32.24947      -11.15615       -6.07545
C        -32.72238      -12.18606       -6.91610
C        -31.24920       -8.15628       -3.31573
C        -31.72848       -9.17216       -4.16852
C        -32.98484       -9.81683       -4.13016
C        -34.01062       -9.46726       -3.17089
C        -34.87655      -10.30838       -2.52702
C        -35.79461       -9.65121       -1.68040
C        -36.82613      -10.35525       -0.86071
C        -35.63455       -8.29317       -1.69185
C        -36.41607       -7.28161       -0.93108
S        -34.34302       -7.81299       -2.73753
C        -33.19718      -10.81184       -5.07811
S        -34.66065      -11.75184       -5.24024
C        -33.98873      -12.60656       -6.60932
C        -34.74528      -13.61301       -7.25352
C        -36.02017      -14.07151       -6.93931
N        -36.91114      -13.76385       -5.99745
S        -38.19843      -14.70073       -6.21913
N        -37.71944      -15.54373       -7.49848
C        -36.48979      -15.12244       -7.82914
C        -35.57527      -15.44671       -8.80046
S        -34.16140      -14.48820       -8.63621
H          3.62065       -2.30283        1.43807
H         -3.43749       -2.93101       -0.06171
H         -5.07865       -4.84448       -0.07529
H         -5.39643       -5.53495        1.52154
H         -4.33114       -6.37622        0.39981
H         -2.20506       -6.37380        3.97642
H         -2.78352       -7.20582        2.52659
H         -3.92812       -6.36390        3.56910
H         -4.01639       -1.03787        1.14956
H          3.03595        0.15301        0.83526
H         -0.25897        3.53851        1.19049
H          0.32239        5.93276        0.70775
H          1.06236        6.21966       -0.87296
H          2.07174        6.16256        0.56894
H          4.03396        3.69173       -2.15956
H          3.97179        5.05665       -1.03339
H          2.90917        5.02843       -2.43893
H        -13.97859       -1.41899       -1.75993
H        -14.56450       -3.69934       -2.65252
H        -14.34714       -5.00624       -1.48057
H        -13.16007       -4.77008       -2.75948
H        -12.39183       -5.76498        0.23790
H        -10.77923       -5.13655        0.60861
H        -11.21534       -5.54912       -1.05630
H        -15.20088       -0.61569        0.00163
H         -9.53857        3.71537        0.66976
H        -13.95247        4.78987        2.04808
H        -14.54371        7.16604        2.59771
H        -14.19087        8.33384        1.31723
H        -13.10759        8.19542        2.69855
H        -12.17519        8.82519       -0.37709
H        -10.56418        8.12786       -0.60559
H        -11.05279        8.74684        0.97898
H        -24.32811       -0.11009        2.18098
H        -25.36689        1.54482        3.75778
H        -27.11089        1.28761        3.91271
H        -26.50513        2.67558        3.01385
H        -29.19019        1.17982        2.08204
H        -29.25269        1.28290        0.31665
H        -28.47614        2.56475        1.25917
H        -27.08492       -2.84762       -0.52295
H        -20.02040       -2.00073       -1.32506
H        -22.43856       -5.96226       -2.33325
H        -21.34507       -7.79506       -3.65395
H        -19.61039       -7.52685       -3.88057
H        -20.71980       -7.27884       -5.22544
H        -19.24423       -5.19606       -6.15550
H        -18.11820       -5.49627       -4.83385
H        -18.43985       -3.83617       -5.35931
H        -28.14653      -10.69426       -6.11840
H        -26.03035      -10.91485       -7.45300
H        -26.14549      -10.31589       -9.11301
H        -26.20588      -12.04794       -8.80124
H        -27.88607      -10.52356      -11.13895
H        -29.41323      -11.38734      -11.37144
H        -27.95505      -12.26637      -10.88765
H        -32.15669      -12.62314       -7.71861
H        -31.79330       -7.73289       -2.49260
H        -34.83678      -11.37834       -2.62465
H        -36.79770      -11.42330       -1.05645
H        -37.82196       -9.98205       -1.09694
H        -36.65098      -10.18796        0.20207
H        -36.34512       -7.47301        0.14033
H        -37.47006       -7.32646       -1.20800
H        -36.04366       -6.28093       -1.13304
H        -35.64647      -16.17332       -9.58237
