198
d8a8.out	Energy:  -11968.4369281
C        -11.32038       -8.30052        4.86331
S        -12.34907       -6.94685        5.18234
C        -11.36078       -5.92211        4.17260
C        -11.62914       -4.59027        3.86204
C        -12.79463       -3.92115        4.39964
C        -13.34008       -4.05109        5.64669
C        -14.52922       -3.31338        5.83510
C        -15.30421       -3.28910        7.11207
C        -14.89894       -2.62414        4.71422
C        -16.09063       -1.75174        4.53668
S        -13.77694       -2.86709        3.41968
C        -10.73055       -3.96454        2.97653
C        -10.73255       -2.61841        2.53364
C        -10.28034       -8.00579        4.05869
C        -10.26464       -6.64035        3.64530
C         -9.36102       -6.01113        2.76962
C         -8.19886       -6.71113        2.25967
C         -7.33677       -7.51690        2.94825
C         -6.28830       -8.04128        2.15958
C         -5.21537       -8.93995        2.68345
C         -6.36317       -7.63266        0.85767
C         -5.44283       -7.98537       -0.25655
S         -7.71809       -6.58748        0.59236
C         -9.63658       -4.68874        2.44329
S         -8.67403       -3.69610        1.38115
C         -9.71449       -2.31850        1.67828
C         -9.45199       -1.07181        1.04282
C         -8.52884       -0.79440        0.06134
C         -8.55251        0.53645       -0.36192
C         -9.48825        1.30079        0.29833
S        -10.36153        0.34958        1.46214
C         -9.77190        2.68692        0.12001
S        -10.70561        3.55995        1.31431
C        -10.57244        5.03089        0.39064
C        -11.15183        6.24538        0.73638
C        -11.92863        6.41836        1.94642
C        -13.10751        7.09210        2.10391
C        -13.60718        7.07206        3.42498
C        -14.87953        7.73130        3.84925
C        -12.79340        6.38045        4.27821
C        -12.99071        6.15570        5.73539
S        -11.40947        5.73730        3.46135
C        -10.95421        7.31173       -0.16334
C        -11.35341        8.66199       -0.01069
C         -9.38901        3.48680       -0.91764
C         -9.82727        4.82806       -0.79702
C         -9.65228        5.88753       -1.71088
C         -8.89222        5.75339       -2.93588
C         -9.14932        6.32736       -4.14977
C         -8.17586        6.05420       -5.13574
C         -8.24362        6.56251       -6.53870
C         -7.15910        5.27322       -4.66318
C         -5.96506        4.78900       -5.40645
S         -7.39845        4.85836       -2.99965
C        -10.23880        7.10195       -1.36649
S        -10.13616        8.57382       -2.29600
C        -10.99895        9.46260       -1.05815
C        -11.26988       10.85242       -1.22197
C        -11.80098       11.72665       -0.29853
C        -11.95578       13.02375       -0.78891
C        -11.55202       13.16506       -2.09905
S        -10.95689       11.65922       -2.72801
C        -11.59759       14.33700       -2.90869
S        -11.17611       14.25628       -4.60667
C        -11.55083       15.94562       -4.82110
C        -11.46650       16.64718       -6.02003
C        -11.00862       15.99943       -7.23136
C        -11.25793       14.72192       -7.64922
C        -10.60652       14.37020       -8.85180
C        -10.73148       13.03418       -9.50819
C         -9.84363       15.38881       -9.34951
C         -9.01646       15.38289      -10.58585
S         -9.93112       16.79648       -8.34559
C        -11.83594       18.00719       -5.97447
C        -11.90598       18.92996       -7.04585
C        -11.97604       15.59541       -2.53812
C        -11.93817       16.53733       -3.59493
C        -12.24809       17.91090       -3.53909
C        -12.55403       18.55977       -2.28110
C        -11.92880       18.39407       -1.07666
C        -12.46218       19.19063       -0.03933
C        -11.94515       19.19581        1.36285
C        -13.50803       19.96254       -0.46223
C        -14.31546       20.91532        0.34601
S        -13.83900       19.72511       -2.14482
C        -12.21807       18.59941       -4.74549
S        -12.60068       20.28629       -4.94868
C        -12.29481       20.18364       -6.66846
C        -12.47331       21.32833       -7.49784
C        -12.24143       21.44413       -8.85112
C        -12.52984       22.71394       -9.35417
C        -12.98667       23.59062       -8.39654
S        -13.05838       22.82587       -6.83663
C        -13.36790       24.95168       -8.55690
S        -13.28302       25.71494      -10.13116
C        -13.87140       27.21619       -9.46727
C        -14.12543       28.36792      -10.20092
C        -13.92952       28.43668      -11.63456
C        -14.75470       28.99706      -12.56878
C        -14.27703       28.88993      -13.89394
C        -15.00136       29.41673      -15.09030
C        -13.07293       28.24685      -13.96189
C        -12.26780       27.95820      -15.17899
S        -12.52136       27.75514      -12.39596
C        -14.60594       29.47770       -9.47747
C        -14.84328       30.79037       -9.95682
C        -13.81819       25.80745       -7.59503
C        -14.10559       27.10826       -8.07424
C        -14.60947       28.21002       -7.35392
C        -14.85096       28.17122       -5.92710
C        -15.86597       28.76824       -5.23183
C        -15.78975       28.58903       -3.83341
C        -16.78790       29.13537       -2.86550
C        -14.69674       27.85833       -3.45994
C        -14.28930       27.47319       -2.08218
S        -13.75701       27.37480       -4.82988
C        -14.84822       29.36843       -8.08807
S        -15.40351       30.88449       -7.43026
C        -15.26875       31.65866       -8.99491
C        -15.59556       33.04136       -9.14923
C        -15.55647       33.79903      -10.29384
C        -15.94751       35.13327      -10.08499
C        -16.28191       35.38686       -8.79167
S        -16.12447       33.99753       -7.79616
H        -11.56585       -9.24550        5.30722
H        -12.88512       -4.63348        6.42782
H        -14.82993       -3.92599        7.85338
H        -16.32194       -3.64178        6.94727
H        -15.36291       -2.27464        7.50614
H        -16.10110       -1.31736        3.54061
H        -16.08564       -0.94545        5.27111
H        -17.00746       -2.32557        4.67825
H        -11.45651       -1.88418        2.83659
H         -9.55386       -8.72849        3.73594
H         -7.42530       -7.69815        4.00527
H         -5.35537       -9.11823        3.74612
H         -4.23346       -8.49310        2.53008
H         -5.22981       -9.89733        2.16286
H         -4.42612       -7.66451       -0.02635
H         -5.75991       -7.50591       -1.17860
H         -5.42455       -9.06495       -0.41048
H         -7.86486       -1.54306       -0.33361
H         -7.89801        0.93620       -1.11487
H        -13.62971        7.55508        1.28483
H        -15.35572        8.21752        3.00211
H        -14.68539        8.47851        4.61866
H        -15.57000        6.99806        4.26513
H        -12.18267        5.55305        6.14046
H        -13.93564        5.64258        5.91695
H        -13.02039        7.10644        6.26885
H        -11.87049        9.02701        0.85655
H         -8.83387        3.11540       -1.75799
H        -10.03393        6.90498       -4.34998
H         -9.12132        7.18884       -6.67034
H         -8.29358        5.73382       -7.24491
H         -7.35641        7.14899       -6.77536
H         -6.26801        4.18743       -6.26443
H         -5.33190        4.18500       -4.76201
H         -5.38211        5.63164       -5.78006
H        -12.06145       11.43397        0.70228
H        -12.35777       13.83460       -0.20927
H        -11.92195       14.05385       -7.13078
H        -11.36364       12.38042       -8.91401
H         -9.75193       12.56965       -9.61722
H        -11.16558       13.13421      -10.50296
H         -8.24658       14.61268      -10.52484
H         -8.53505       16.34666      -10.72892
H         -9.63531       15.16638      -11.45753
H        -11.69357       18.67160       -8.06589
H        -12.29804       15.84269       -1.54401
H        -11.07624       17.75089       -0.94505
H        -11.11222       18.50508        1.46257
H        -12.72886       18.90350        2.06163
H        -11.60695       20.19354        1.64147
H        -14.82127       20.39491        1.15968
H        -15.06210       21.40252       -0.27419
H        -13.67396       21.67834        0.78719
H        -11.87101       20.63450       -9.45284
H        -12.41151       22.99756      -10.38516
H        -15.70384       29.43845      -12.31915
H        -15.93932       29.87787      -14.79313
H        -15.21477       28.61201      -15.79329
H        -14.39479       30.15883      -15.60916
H        -11.99389       28.88463      -15.68530
H        -12.84253       27.35256      -15.88074
H        -11.36005       27.42188      -14.91644
H        -14.67160       31.08171      -10.97592
H        -13.94694       25.49715       -6.57426
H        -16.67339       29.29481       -5.70851
H        -17.54996       29.70429       -3.39048
H        -16.30036       29.78790       -2.14184
H        -17.26946       28.32761       -2.31450
H        -14.10564       28.36154       -1.47650
H        -13.38392       26.87262       -2.10556
H        -15.07956       26.89772       -1.59851
H        -15.25577       33.40924      -11.24899
H        -15.97915       35.87398      -10.86400
H        -16.61276       36.30933       -8.35789
