198
d8a9.out	Energy:  -19985.6498949
C        -10.46253       -6.76607        9.52730
S        -11.50812       -6.92477        8.15909
C        -11.19023       -5.27450        7.69044
C        -11.72111       -4.63722        6.57093
C        -12.60506       -5.33871        5.66342
C        -13.58960       -6.23512        5.97244
C        -14.23727       -6.79167        4.84751
C        -15.35069       -7.78408        4.93093
C        -13.73042       -6.32294        3.66823
C        -14.15539       -6.68510        2.28940
S        -12.45752       -5.18030        3.93406
C        -11.32892       -3.29951        6.37187
C        -11.73958       -2.41267        5.34482
C         -9.89658       -5.54778        9.63165
C        -10.27818       -4.66243        8.58021
C         -9.86637       -3.33413        8.36741
C         -8.90228       -2.66174        9.21530
C         -8.91315       -1.35933        9.62853
C         -7.79106       -0.99143       10.40381
C         -7.58461        0.37208       10.97823
C         -6.91132       -2.02330       10.57111
C         -5.62466       -2.00790       11.31781
S         -7.46353       -3.46265        9.78335
C        -10.42304       -2.68513        7.26992
S        -10.07529       -1.04730        6.78381
C        -11.15990       -1.17973        5.41607
C        -11.35394       -0.06055        4.55452
C        -12.16288        0.00115        3.44197
C        -12.17552        1.23134        2.77562
C        -11.37631        2.21036        3.31931
Se       -10.48027        1.57788        4.84885
C        -11.21150        3.54242        2.84740
S        -12.10964        4.11247        1.45524
C        -11.37006        5.68658        1.58232
C        -11.59092        6.74490        0.70971
C        -12.47627        6.64627       -0.43117
C        -12.27911        7.13577       -1.69249
C        -13.34165        6.86964       -2.58372
C        -13.35990        7.29883       -4.01481
C        -14.35722        6.17423       -1.98910
C        -15.63267        5.72593       -2.60941
S        -14.00994        5.83036       -0.32820
C        -10.89029        7.93762        0.98314
C        -11.01043        9.18815        0.33059
C        -10.40162        4.51215        3.36264
C        -10.47014        5.74687        2.67519
C         -9.74534        6.92914        2.93020
C         -8.81963        7.06067        4.03576
C         -7.62896        7.73250        4.05503
C         -6.98362        7.72593        5.31097
C         -5.66826        8.38208        5.57773
C         -7.69810        7.05168        6.26101
C         -7.33757        6.84125        7.68866
S         -9.16830        6.40843        5.61300
C         -9.98010        7.99339        2.06564
S         -9.26796        9.58035        2.20706
C        -10.22033       10.16799        0.85653
C        -10.10724       11.52053        0.43014
C         -9.31561       12.49753        0.98841
C         -9.38469       13.75406        0.37870
C        -10.23469       13.84343       -0.70133
Se       -11.07363       12.19497       -1.03907
C        -10.48814       15.00162       -1.49131
S        -11.65565       14.94942       -2.79469
C        -11.36007       16.62422       -3.18483
C        -11.94219       17.32360       -4.23796
C        -12.90021       16.68658       -5.11635
C        -13.86033       15.76948       -4.78922
C        -14.60046       15.29110       -5.89238
C        -15.70763       14.29391       -5.78558
C        -14.19049       15.84145       -7.07430
C        -14.73121       15.57762       -8.43465
S        -12.89412       16.96294       -6.83692
C        -11.53408       18.66459       -4.39766
C        -12.00906       19.62352       -5.32556
C         -9.92085       16.23738       -1.36939
C        -10.39864       17.18271       -2.30797
C         -9.98891       18.52148       -2.46848
C         -9.03227       19.16236       -1.59046
C         -8.05613       20.05900       -1.92419
C         -7.32841       20.55713       -0.82101
C         -6.20990       21.54077       -0.93436
C         -7.76381       20.04173        0.36721
C         -7.24535       20.33742        1.72969
S         -9.06833       18.92724        0.13575
C        -10.57158       19.22020       -3.51960
S        -10.26994       20.89703       -3.88856
C        -11.44309       20.85743       -5.19028
C        -11.69515       22.03158       -5.95301
C        -11.12666       23.26973       -5.75775
C        -11.53703       24.27065       -6.64296
C        -12.45531       23.88065       -7.59262
Se       -12.89381       22.06136       -7.40369
C        -13.02848       24.70144       -8.60666
S        -14.11600       24.01288       -9.79250
C        -14.31604       25.56172      -10.56934
C        -15.15250       25.81897      -11.65093
C        -15.94446       24.76480      -12.24860
C        -15.59503       23.45769      -12.44435
C        -16.62335       22.66289      -12.99656
C        -16.47772       21.20971      -13.31039
C        -17.77217       23.37110      -13.21189
C        -19.05566       22.87100      -13.77304
S        -17.59362       25.02822      -12.74616
C        -15.19030       27.15255      -12.10573
C        -15.88594       27.67678      -13.22324
C        -12.83452       26.03716       -8.81161
C        -13.54322       26.55602       -9.92201
C        -13.58678       27.89087      -10.37259
C        -12.80469       28.94931       -9.76823
C        -13.17522       30.24608       -9.54667
C        -12.15600       31.05051       -8.99056
C        -12.32469       32.49478       -8.64822
C        -10.99232       30.36038       -8.79910
C         -9.71219       30.87483       -8.24293
S        -11.14619       28.70772       -9.29136
C        -14.42009       28.14688      -11.45628
S        -14.60765       29.69832      -12.23212
C        -15.68417       29.00780      -13.43048
C        -16.23616       29.82553      -14.46150
C        -16.01387       31.16223      -14.66881
C        -16.69374       31.71903      -15.77072
C        -17.46989       30.84476      -16.46336
Se       -17.41847       29.13307      -15.75317
H        -10.34539       -7.60688       10.18251
H        -13.87262       -6.46879        6.98310
H        -15.56904       -8.01941        5.96870
H        -15.08200       -8.70389        4.41234
H        -16.25232       -7.38917        4.46297
H        -14.01818       -7.75298        2.11690
H        -13.57496       -6.13578        1.55330
H        -15.21204       -6.45799        2.14399
H        -12.45072       -2.67727        4.58539
H         -9.23306       -5.27260       10.43023
H         -9.72134       -0.68296        9.41471
H         -8.39060        1.03436       10.67524
H         -6.63899        0.79143       10.63621
H         -7.55577        0.32907       12.06701
H         -4.93862       -1.28163       10.87916
H         -5.15654       -2.98873       11.29353
H         -5.79089       -1.72325       12.35789
H        -12.74422       -0.84107        3.10848
H        -12.76769        1.41311        1.89378
H        -11.37550        7.63804       -1.99058
H        -12.45188        7.84346       -4.25837
H        -14.21694        7.94312       -4.20940
H        -13.43728        6.43391       -4.67314
H        -16.20649        6.58253       -2.96501
H        -16.23390        5.17701       -1.88990
H        -15.43322        5.08023       -3.46537
H        -11.68665        9.37992       -0.48667
H         -9.76659        4.32340        4.21271
H         -7.20151        8.19235        3.18196
H         -5.30347        8.87409        4.68054
H         -4.93100        7.64663        5.89924
H         -5.76528        9.12435        6.36953
H         -7.24495        7.79856        8.20354
H         -6.37895        6.32661        7.76743
H         -8.09619        6.24645        8.19069
H         -8.68978       12.29493        1.84193
H         -8.81597       14.59692        0.73144
H        -14.06296       15.46722       -3.77737
H        -15.82617       13.97128       -4.75510
H        -15.49709       13.42175       -6.40382
H        -16.64739       14.72646       -6.12859
H        -14.61549       14.52489       -8.69333
H        -14.21179       16.17827       -9.17578
H        -15.79457       15.81475       -8.47405
H        -12.76327       19.42877       -6.07004
H         -9.16840       16.46153       -0.63747
H         -7.83539       20.33291       -2.94032
H         -6.05632       21.81860       -1.97323
H         -5.28490       21.11720       -0.54356
H         -6.43283       22.43985       -0.36054
H         -7.36807       21.39602        1.96221
H         -6.18158       20.10440        1.79159
H         -7.77616       19.75286        2.47648
H        -10.41300       23.44332       -4.96913
H        -11.15866       25.27679       -6.59042
H        -14.61249       23.07506      -12.23339
H        -15.49233       20.85810      -13.01820
H        -16.61201       21.03257      -14.37741
H        -17.22949       20.62718      -12.77878
H        -19.46318       22.07824      -13.14419
H        -18.90009       22.45792      -14.77060
H        -19.78413       23.67506      -13.83723
H        -16.51006       27.08999      -13.87640
H        -12.21438       26.63828       -8.17427
H        -14.16687       30.61299       -9.74262
H        -13.32547       32.82918       -8.90639
H        -11.60114       33.10292       -9.19032
H        -12.16425       32.65746       -7.58252
H         -9.32204       31.68018       -8.86691
H         -8.97051       30.08177       -8.19317
H         -9.86603       31.27572       -7.23997
H        -15.36312       31.73547      -14.02947
H        -16.60212       32.75780      -16.04030
H        -18.06624       31.06318      -17.33065
