362
d9a12.out	Energy:  -11025.8769353
C          1.57596      -44.65774        2.35288
C          1.52445      -43.37796        2.81873
C          2.70611      -42.67662        2.52813
C          3.62800      -43.44115        1.84792
S          3.05964      -45.03740        1.55219
C          4.81790      -42.68845        1.57319
C          4.61380      -41.39857        2.11131
C          3.24649      -41.29192        2.76476
C          3.37175      -40.99213        4.26145
C          2.38388      -40.23151        2.07446
C          5.58817      -40.43276        2.00923
C          6.76913      -40.78255        1.36175
C          7.96015      -40.03242        1.09882
C          8.89032      -40.80162        0.42635
C          8.34574      -42.18392        0.18203
C          6.97372      -42.07290        0.82477
C          5.99769      -43.03793        0.92509
C          8.23222      -42.48039       -1.31613
C          9.19798      -43.24843        0.87883
C         10.07413      -40.11613        0.15773
C         10.05377      -38.81643        0.62439
S          8.52908      -38.44564        1.40961
C         11.08757      -37.81705        0.55482
C         12.31067      -38.09261       -0.07615
C         13.28572      -37.12441       -0.08107
N         14.53421      -37.16917       -0.67078
C         15.13290      -38.27999       -1.36574
C         16.04716      -39.11878       -0.45899
C         15.25935      -39.78996        0.66231
C         16.78041      -40.16048       -1.29921
C         15.19181      -35.97606       -0.51158
O         16.31426      -35.78516       -0.93652
C         10.89379      -36.55095        1.12233
C         11.87522      -35.58316        1.11513
C         13.10850      -35.86127        0.53340
C         14.30284      -35.08476        0.29921
C         14.63884      -33.83412        0.75023
C         15.68306      -32.93020        0.33360
C         16.63825      -32.95377       -0.67870
C         17.49613      -31.88465       -0.83693
C         13.96260      -33.14231        1.89532
O         13.11444      -33.56052        2.65728
N         14.55875      -31.91472        2.04140
C         14.14771      -30.97774        3.05566
C         13.08447      -29.96892        2.58109
C         13.64493      -28.96173        1.58001
C         11.87579      -30.68982        1.98945
C         15.59299      -31.76891        1.13978
C         16.45544      -30.71030        0.99683
C         17.43977      -30.76167       -0.00012
C         18.36704      -29.66965       -0.14213
C         19.50554      -29.59495       -0.91863
C         20.17201      -28.37780       -0.77719
C         19.54389      -27.51477        0.10006
S         18.12032      -28.19172        0.77311
C         20.26983      -26.28861        0.22337
C         21.40269      -26.39934       -0.61428
C         21.42354      -27.74303       -1.32352
C         22.66670      -28.55141       -0.94111
C         21.34134      -27.56810       -2.84268
C         22.31325      -25.37184       -0.70129
C         22.06998      -24.23388        0.06312
C         22.80703      -23.01471        0.20807
C         22.17356      -22.15825        1.08887
C         20.90983      -22.78477        1.61272
C         20.93281      -24.12280        0.89554
C         20.02249      -25.14937        0.98313
C         19.67746      -21.96626        1.21676
C         20.96879      -22.96950        3.13182
C         22.85364      -20.95568        1.26804
C         24.01665      -20.88706        0.52646
S         24.26230      -22.34906       -0.41070
C         24.97130      -19.81137        0.46027
C         24.70829      -18.59088        1.10118
C         25.63954      -17.58483        1.01722
N         25.59762      -16.33087        1.59364
C         24.54292      -15.77086        2.39978
C         24.81548      -15.90483        3.90619
C         23.76506      -15.11914        4.68592
C         24.82931      -17.36626        4.34504
C         26.74738      -15.63298        1.32423
O         26.92308      -14.49065        1.69902
C         26.18014      -19.96274       -0.23119
C         27.10825      -18.94639       -0.32024
C         26.84655      -17.72294        0.28972
C         27.59924      -16.50248        0.45194
C         28.79454      -16.11961       -0.10017
C         29.67524      -15.03083        0.24275
C         29.71092      -14.10840        1.28436
C         30.73348      -13.18506        1.34640
C         29.41028      -16.75078       -1.31172
O         28.98151      -17.63759       -2.02199
N         30.56474      -16.06101       -1.58869
C         31.41066      -16.39683       -2.70579
C         32.54404      -17.38230       -2.36225
C         33.60998      -16.75443       -1.46788
C         31.98837      -18.64913       -1.71674
C         30.73966      -15.02680       -0.69151
C         31.74464      -14.09171       -0.64936
C         31.74696      -13.13832        0.37889
C         32.77430      -12.13111        0.42056
C         33.00886      -11.17387        1.38714
C         34.08331      -10.34366        1.07052
C         34.67438      -10.65824       -0.13819
S         33.92088      -11.99501       -0.90239
C         35.75086       -9.76290       -0.43152
C         35.83211       -8.85551        0.64905
C         34.77753       -9.16430        1.69814
C         33.81625       -7.98662        1.88162
C         35.42228       -9.54644        3.03383
C         36.77163       -7.85091        0.65233
C         37.62210       -7.76624       -0.44653
C         38.67292       -6.84663       -0.76189
C         39.23668       -7.14238       -1.98837
C         38.57125       -8.34910       -2.59249
C         37.53893       -8.67366       -1.52733
C         36.60473       -9.68251       -1.52748
C         39.56525       -9.50096       -2.76837
C         37.90333       -8.00571       -3.92694
C         40.25383       -6.26137       -2.35225
C         40.47792       -5.28886       -1.39971
S         39.40243       -5.47900       -0.02601
C         41.43765       -4.21624       -1.42942
C         41.72087       -3.49014       -0.26469
C         42.65594       -2.48488       -0.31852
N         43.06640       -1.63979        0.69208
C         42.61107       -1.63016        2.05924
C         41.50128       -0.59645        2.30649
C         40.23832       -0.93066        1.51787
C         41.19844       -0.52535        3.80045
C         43.99166       -0.73978        0.22861
O         44.52744        0.07890        0.94873
C         42.09340       -3.87136       -2.61893
C         43.03536       -2.86536       -2.66570
C         43.35806       -2.16649       -1.50638
C         44.22908       -1.05126       -1.21825
C         45.13473       -0.40937       -2.02330
C         45.80343        0.86048       -1.85965
C         45.73930        1.87853       -0.91257
C         46.49208        3.02131       -1.09022
C         45.66796       -0.96612       -3.30970
O         45.48297       -2.05023       -3.82496
N         46.54027       -0.04015       -3.82168
C         47.22420       -0.21523       -5.07530
C         46.60026        0.61172       -6.21060
C         47.42981        0.43793       -7.47954
C         45.15351        0.18911       -6.44733
C         46.62867        1.05901       -2.99281
C         47.38131        2.19325       -3.17526
C         47.32265        3.20296       -2.20269
C         48.10910        4.40003       -2.35446
C         48.75870        4.85696       -3.48350
C         49.43737        6.05393       -3.26211
C         49.31807        6.51348       -1.96405
S         48.34739        5.48137       -0.99574
C         50.04812        7.73244       -1.78542
C         50.63798        8.03971       -3.03287
C         50.28625        6.99331       -4.07521
C         51.54079        6.29396       -4.60596
C         49.48526        7.60991       -5.22599
C         51.41583        9.16312       -3.18530
C         51.59790        9.97031       -2.06654
C         52.34016       11.18037       -1.88880
C         52.24498       11.63229       -0.58620
C         51.38313       10.70242        0.22643
C         51.01338        9.66201       -0.81745
C         50.23059        8.54081       -0.66681
C         50.13874       11.41876        0.75885
C         52.17577       10.07342        1.37599
C         52.96067       12.80763       -0.36365
C         53.60414       13.26143       -1.49870
S         53.31087       12.20117       -2.86502
C         54.43412       14.42667       -1.66067
C         54.70851       15.26700       -0.57023
C         55.52375       16.35639       -0.76201
N         55.88929       17.32476        0.15385
C         55.58157       17.35573        1.56113
C         56.59425       16.59817        2.44140
C         56.48640       15.08362        2.28295
C         58.01919       17.06233        2.15375
C         56.58413       18.33568       -0.46146
O         56.98653       19.31659        0.12984
C         54.98120       14.74401       -2.91060
C         55.78363       15.84859       -3.10283
C         56.08156       16.67437       -2.02356
C         56.77310       17.93516       -1.89417
C         57.50694       18.63593       -2.81223
C         57.94842       20.01606       -2.80721
C         57.67061       21.10363       -1.98911
C         58.18990       22.34634       -2.31646
C         58.09335       18.04610       -4.05839
O         58.04542       16.90633       -4.47747
N         58.81701       19.03429       -4.67359
C         59.56444       18.79014       -5.88122
C         60.93969       18.16408       -5.60234
C         61.59899       17.77343       -6.92181
C         61.83432       19.11638       -4.81417
C         58.72679       20.21971       -3.97006
C         59.24472       21.45699       -4.29436
C         58.97227       22.52163       -3.44642
H          0.82473      -45.41893        2.42864
H          0.67681      -42.97257        3.34160
H          3.98755      -41.74673        4.74607
H          2.38889      -40.99227        4.72714
H          3.83110      -40.01855        4.41365
H          2.30088      -40.44751        1.01147
H          2.82870      -39.24685        2.19543
H          1.38608      -40.22048        2.50711
H          5.45831      -39.43940        2.41185
H          6.12866      -44.03167        0.52356
H          7.76988      -43.45163       -1.47402
H          9.21890      -42.48413       -1.77382
H          7.62398      -41.72223       -1.80475
H          9.27243      -43.03360        1.94267
H         10.19974      -43.26364        0.45546
H          8.75040      -44.23122        0.75320
H         10.91527      -40.54888       -0.35234
H         12.47803      -39.04702       -0.54632
H         15.73422      -37.86099       -2.17880
H         14.34186      -38.90019       -1.79313
H         16.78259      -38.43862       -0.01724
H         14.53271      -40.48964        0.25295
H         14.73111      -39.05447        1.26455
H         15.93197      -40.34295        1.31401
H         16.07040      -40.83477       -1.77490
H         17.44582      -40.75014       -0.67350
H         17.37371      -39.68123       -2.07414
H          9.94500      -36.33157        1.58924
H         11.68643      -34.63143        1.57830
H         16.72833      -33.81024       -1.32306
H         18.22961      -31.92030       -1.62629
H         15.02890      -30.44870        3.42752
H         13.72262      -31.57528        3.86863
H         12.76200      -29.42369        3.47573
H         13.99040      -29.46347        0.67904
H         14.47451      -28.40399        2.00934
H         12.87130      -28.25110        1.29746
H         12.14104      -31.17333        1.05087
H         11.07369      -29.98232        1.79196
H         11.50966      -31.45118        2.67339
H         16.39508      -29.84805        1.64159
H         19.84209      -30.39984       -1.54600
H         22.72034      -28.67159        0.13886
H         23.56587      -28.04245       -1.27927
H         22.62860      -29.53674       -1.39977
H         20.46014      -26.98790       -3.10815
H         21.27881      -28.53908       -3.32852
H         22.22297      -27.04894       -3.21026
H         23.18844      -25.43106       -1.33073
H         19.14765      -25.09074        1.61322
H         19.63982      -21.84128        0.13674
H         19.71539      -20.98308        1.68027
H         18.77017      -22.47046        1.54010
H         21.84520      -23.55265        3.40621
H         20.08117      -23.48980        3.48300
H         21.02543      -22.00211        3.62561
H         22.51964      -20.17017        1.92080
H         23.79133      -18.44853        1.64760
H         23.60003      -16.25356        2.13472
H         24.48066      -14.70716        2.14815
H         25.80012      -15.46734        4.10064
H         22.76964      -15.51143        4.48583
H         23.78472      -14.06888        4.40570
H         23.95377      -15.19280        5.75406
H         23.85142      -17.81929        4.19199
H         25.07362      -17.43845        5.40242
H         25.56715      -17.93659        3.78545
H         26.38806      -20.90801       -0.71051
H         28.01665      -19.10012       -0.87499
H         28.93273      -14.09098        2.02632
H         30.73523      -12.46824        2.15138
H         31.82680      -15.47623       -3.12297
H         30.75946      -16.86272       -3.45241
H         33.01020      -17.65289       -3.31673
H         33.18606      -16.45714       -0.51143
H         34.05212      -15.88056       -1.94158
H         34.40430      -17.47317       -1.27845
H         31.59286      -18.43129       -0.72630
H         32.77320      -19.39487       -1.61248
H         31.18627      -19.06757       -2.31909
H         32.52857      -14.07756       -1.38974
H         32.42357      -11.08742        2.28406
H         33.36510       -7.71677        0.92916
H         34.34848       -7.12247        2.27138
H         33.02522       -8.25390        2.57842
H         36.10532      -10.38214        2.89706
H         34.65682       -9.83556        3.75025
H         35.97947       -8.70462        3.43742
H         36.85436       -7.14406        1.46432
H         36.51991      -10.38764       -2.34068
H         40.03607       -9.74080       -1.81737
H         40.33923       -9.22267       -3.47985
H         39.05361      -10.38695       -3.13610
H         37.19522       -7.19038       -3.79493
H         37.37003       -8.86979       -4.31532
H         38.65334       -7.70188       -4.65352
H         40.82048       -6.33344       -3.26233
H         41.20516       -3.73157        0.65176
H         43.47497       -1.37369        2.68085
H         42.26688       -2.63208        2.32370
H         41.87890        0.37670        1.97554
H         39.83126       -1.88881        1.83544
H         40.44380       -0.97863        0.45093
H         39.48060       -0.16814        1.68381
H         40.42532        0.21395        3.99455
H         42.08780       -0.24654        4.36026
H         40.84921       -1.49003        4.16365
H         41.85178       -4.39855       -3.52769
H         43.52611       -2.64250       -3.59598
H         45.12773        1.77229       -0.03439
H         46.44222        3.80462       -0.34819
H         47.15644       -1.27952       -5.31918
H         48.27772        0.05301       -4.94646
H         46.61052        1.66837       -5.92001
H         47.43125       -0.60473       -7.78906
H         48.45961        0.74901       -7.31630
H         47.01536        1.03519       -8.28808
H         45.10448       -0.86848       -6.69651
H         44.72011        0.76016       -7.26531
H         44.55078        0.35779       -5.55742
H         48.02151        2.29879       -4.03548
H         48.72380        4.35041       -4.43079
H         52.10325        5.85528       -3.78457
H         52.17920        7.00576       -5.12322
H         51.26389        5.50394       -5.30029
H         48.59808        8.10883       -4.84185
H         49.17508        6.83602       -5.92436
H         50.09114        8.33910       -5.75809
H         51.87639        9.42103       -4.12709
H         49.77157        8.28221        0.27562
H         49.58133       11.86548       -0.06166
H         50.42645       12.20461        1.45355
H         49.49154       10.71479        1.27600
H         53.05738        9.56508        0.99145
H         51.56115        9.35021        1.90620
H         52.49457       10.84195        2.07652
H         53.00842       13.31030        0.58500
H         54.28155       15.06112        0.39631
H         54.57502       16.95681        1.71506
H         55.59187       18.41115        1.85060
H         56.34585       16.85402        3.47778
H         56.71411       14.78388        1.26290
H         55.48749       14.73464        2.53685
H         57.19303       14.59077        2.94716
H         58.33439       16.73515        1.16544
H         58.70691       16.64435        2.88527
H         58.08597       18.14602        2.19018
H         54.76313       14.10182       -3.75103
H         56.18691       16.05342       -4.07847
H         57.07559       20.98572       -1.10121
H         57.98173       23.19034       -1.67667
H         59.67435       19.72985       -6.42643
H         58.97706       18.09321       -6.48738
H         60.77309       17.25957       -5.00839
H         61.75152       18.65180       -7.54633
H         60.97917       17.06541       -7.46650
H         62.56599       17.31187       -6.73828
H         62.03349       20.01804       -5.39064
H         62.78558       18.63891       -4.59079
H         61.36891       19.40261       -3.87372
H         59.84218       21.60302       -5.18055
H         59.37250       23.49761       -3.67806
