198
d9a1.out	Energy:   -9221.2131173
C         -0.66437        8.88087        1.08490
C          0.67142        9.04072        1.30334
C          1.36234        7.82407        1.18058
C          0.53421        6.76775        0.87151
S         -1.11042        7.25013        0.72587
C          1.27870        5.54731        0.75507
C          2.63048        5.87207        1.00517
C          2.78775        7.35484        1.29741
C          3.33548        7.58517        2.70886
C          3.68357        8.03151        0.25588
C          3.60498        4.90189        0.96567
C          3.20318        3.60190        0.67147
C          3.95205        2.38724        0.55399
C          3.11697        1.32791        0.24209
C          1.69095        1.79691        0.12847
C          1.85046        3.27845        0.42194
C          0.87582        4.24895        0.46165
C          1.14075        1.56769       -1.28206
C          0.79798        1.11907        1.17159
C          3.79520        0.12088        0.11453
C          5.15662        0.25734        0.32981
S          5.59557        1.91084        0.69640
C          6.16207       -0.75930        0.28174
C          5.89351       -2.09313       -0.00428
C          6.87714       -3.07547       -0.05011
C          7.52471       -0.45170        0.52967
N          8.02976        0.74307        0.82309
S          9.62139        0.60779        1.02027
N          9.74786       -0.97275        0.74314
C          8.54089       -1.46649        0.48236
C          8.22269       -2.81701        0.18582
C          9.24132       -3.82033        0.14021
C          9.09731       -5.17125       -0.13155
C         10.30960       -5.85016       -0.09067
C         11.38093       -5.02564        0.21127
S         10.90870       -3.39217        0.45123
C         12.60019       -5.77264        0.23950
C         12.26965       -7.11524       -0.05707
C         10.77659       -7.26740       -0.29090
C         10.14891       -8.21121        0.73876
C         10.48646       -7.75354       -1.71372
C         13.24294       -8.08502       -0.10518
C         14.55421       -7.69005        0.14817
C         15.77376       -8.43661        0.17406
C         16.84540       -7.61178        0.47438
C         16.37796       -6.19513        0.67750
C         14.88473       -6.34751        0.44498
C         13.91138       -5.37778        0.49336
C         17.00432       -5.24938       -0.35114
C         16.66936       -5.71171        2.10103
C         18.05825       -8.28976        0.51076
C         17.91451       -9.64039        0.23697
S         16.24623      -10.06946       -0.06866
C         18.93351      -10.64272        0.18510
C         20.28091      -10.38353        0.41067
C         21.26460      -11.36530        0.35754
C         18.61352      -11.99354       -0.10815
N         17.40479      -12.48797       -0.35922
S         17.52961      -14.06861       -0.63630
N         19.12293      -14.20296       -0.45135
C         19.62963      -13.00777       -0.16263
C         20.99417      -12.69945        0.07404
C         21.99814      -13.71668        0.01703
C         23.36253      -13.58262        0.21769
C         24.03698      -14.79064        0.08358
C         23.19552      -15.84872       -0.21848
S         21.55148      -15.36926       -0.34326
C         23.93844      -17.06412       -0.34461
C         25.29625      -16.74526       -0.11112
C         25.46294      -15.26397        0.18087
C         26.34646      -14.58864       -0.87189
C         26.03004      -15.03733        1.58513
C         26.26608      -17.71829       -0.16366
C         25.85570      -19.01722       -0.45368
C         26.59822      -20.23299       -0.58034
C         25.75605      -21.29079       -0.88188
C         24.33026      -20.81709       -0.97832
C         24.49780      -19.33593       -0.68681
C         23.52799      -18.36295       -0.63446
C         23.44706      -21.49145        0.07533
C         23.76190      -21.04383       -2.38205
C         26.42966      -22.49903       -1.01697
C         27.79442      -22.36579       -0.81808
S         28.24217      -20.71341       -0.45771
C         28.79727      -23.38383       -0.87817
C         28.52397      -24.71784       -1.15955
C         29.50645      -25.70054       -1.21819
C         30.16342      -23.07702       -0.64839
N         30.67292      -21.88252       -0.36192
S         32.26700      -22.01845       -0.18598
N         32.38894      -23.59905       -0.46457
C         31.17828      -24.09224       -0.70907
C         30.85535      -25.44250       -1.00108
C         31.87317      -26.44594       -1.06167
C         31.72486      -27.79652       -1.33221
C         32.93763      -28.47555       -1.30985
C         34.01358      -27.65157       -1.02374
S         33.54516      -26.01806       -0.77621
C         35.23304      -28.39948       -1.01415
C         34.89693      -29.74155       -1.30654
C         33.40063      -29.89277       -1.51826
C         32.78769      -30.83714       -0.48029
C         33.08926      -30.37709       -2.93724
C         35.86855      -30.71228       -1.36942
C         37.18334      -30.31847       -1.13519
C         38.40276      -31.06714       -1.12664
C         39.47930      -30.24430       -0.84192
C         39.01696      -28.82661       -0.63274
C         37.52005      -28.97688       -0.84310
C         36.54819      -28.00600       -0.77991
C         39.62902      -27.88195       -1.67098
C         39.32981      -28.34240        0.78594
C         40.69144      -30.92646       -0.82220
C         40.54019      -32.27555       -1.09262
S         38.86763      -32.70041       -1.37488
C         41.55868      -33.28414       -1.15728
C         42.90422      -33.02689       -0.95050
C         43.88477      -34.02659       -1.01767
C         41.22202      -34.63388       -1.44516
N         40.00696      -35.12051       -1.67866
S         40.12441      -36.70198       -1.95507
N         41.71570      -36.85167       -1.79346
C         42.23436      -35.65436       -1.51222
C         43.58260      -35.33445       -1.29350
H         -1.43237        9.62851        1.11164
H          1.12284        9.98775        1.53921
H          2.69631        7.10087        3.44397
H          3.37339        8.65002        2.92716
H          4.33813        7.17389        2.79545
H          3.29090        7.86266       -0.74451
H          4.69146        7.62709        0.30641
H          3.72635        9.10302        0.43758
H          4.64506        5.12250        1.15279
H         -0.16424        4.02719        0.27426
H          0.13561        1.97364       -1.36575
H          1.10783        0.50327       -1.50316
H          1.77599        2.05698       -2.01717
H          1.19103        1.29094        2.17125
H          0.75908        0.04709        0.99188
H         -0.21174        1.51914        1.12134
H          3.32737       -0.81697       -0.12369
H          4.87529       -2.38958       -0.20192
H          6.57219       -4.08419       -0.28084
H          8.15012       -5.63069       -0.34816
H         10.35934       -7.86096        1.74689
H         10.55415       -9.21388        0.62733
H          9.07071       -8.25194        0.60181
H         10.93629       -7.08008       -2.43995
H          9.41326       -7.78680       -1.88712
H         10.89623       -8.74948       -1.86265
H         13.01812       -9.11688       -0.32930
H         14.13625       -4.34593        0.71744
H         16.79020       -5.59614       -1.35972
H         18.08300       -5.21113       -0.21729
H         16.60135       -4.24630       -0.23541
H         16.21869       -6.38559        2.82634
H         16.26130       -4.71534        2.25172
H         17.74268       -5.68055        2.27408
H         19.00574       -7.83011        0.72563
H         20.58700       -9.37446        0.63838
H         22.28434      -11.06857        0.54690
H         23.83415      -12.64517        0.44996
H         25.94098      -14.75751       -1.86706
H         27.35471      -14.99359       -0.83390
H         26.39233      -13.51708       -0.69137
H         25.40092      -15.52368        2.32740
H         26.07051      -13.97310        1.80590
H         27.03399      -15.44828        1.65716
H         27.30946      -17.50225        0.01016
H         22.48461      -18.57889       -0.80831
H         23.85476      -21.32455        1.06992
H         23.39813      -22.56271       -0.10617
H         22.43979      -21.08388        0.03957
H         24.39220      -20.56034       -3.12519
H         22.75924      -20.62979       -2.45415
H         23.71798      -22.10818       -2.60149
H         25.95710      -23.43601       -1.24920
H         27.50294      -25.01375       -1.34306
H         29.19801      -26.70924       -1.44437
H         30.77456      -28.25579       -1.53499
H         33.01412      -30.48864        0.52499
H         33.18971      -31.84021       -0.59941
H         31.70747      -30.87619       -0.60066
H         33.52890      -29.70323       -3.66931
H         32.01361      -30.40915       -3.09478
H         33.49579      -31.37325       -3.09332
H         35.63933      -31.74384       -1.59033
H         36.77748      -26.97443       -0.55912
H         39.40349      -28.23130       -2.67615
H         40.70912      -27.84100       -1.55022
H         39.22530      -26.87948       -1.55258
H         38.89267      -29.01744        1.51841
H         38.92135      -27.34720        0.94301
H         40.40563      -28.30803        0.94183
H         41.64280      -30.46864       -0.62079
H         43.21957      -32.01960       -0.72852
H         44.91312      -33.74514       -0.84425
H         44.33473      -36.10404       -1.34551
