242
d9a5.out	Energy:  -10280.4357024
C          2.90573       11.95844       -2.89144
C          4.12227       11.97639       -2.27665
C          4.72863       10.71011       -2.29749
C          3.95797        9.75792       -2.92851
S          2.47214       10.40288       -3.50830
C          4.61207        8.48269       -2.92789
C          5.84639        8.66054       -2.26272
C          6.01530       10.10100       -1.80860
C          6.12952       10.19051       -0.28415
C          7.22880       10.75243       -2.47808
C          6.71388        7.60701       -2.09803
C          6.32798        6.36924       -2.61039
C          6.98939        5.10412       -2.60454
C          6.20943        4.14856       -3.24379
C          4.92181        4.75622       -3.73218
C          5.09137        6.19451       -3.27641
C          4.22379        7.24856       -3.44031
C          4.80804        4.66529       -5.25635
C          3.71063        4.10054       -3.06304
C          6.79845        2.89569       -3.27249
C          8.04222        2.88356       -2.64942
S          8.47835        4.45964       -2.02116
C          8.91714        1.78089       -2.48897
C          8.63956        0.48346       -2.96949
N          7.55166        0.12851       -3.64821
S          7.56531       -1.42333       -4.05984
N          9.06128       -1.72512       -3.32549
C          9.57323       -0.59322       -2.75834
C         10.15765        1.93522       -1.81230
N         10.45574        3.15625       -1.34995
C         11.57528        3.36396       -0.69608
C         11.84635        4.74999       -0.21386
C         12.46459        2.29111       -0.46904
C         13.73680        2.46635        0.29512
N         12.20246        1.08562       -0.92959
C         11.07301        0.86297       -1.61235
C         10.78553       -0.45383       -2.10296
C         11.71114       -1.53684       -1.90094
C         13.07317       -1.45933       -1.70167
C         13.66585       -2.70767       -1.51341
C         12.76877       -3.75647       -1.56210
S         11.16118       -3.21365       -1.83648
C         13.42094       -5.01083       -1.38021
C         14.79814       -4.73142       -1.20898
C         15.05665       -3.23460       -1.27709
C         15.98628       -2.88474       -2.44233
C         15.62792       -2.70962        0.04290
C         15.70055       -5.74915       -1.01859
C         15.20855       -7.05566       -1.00253
C         15.87092       -8.30785       -0.84240
C         14.95212       -9.35056       -0.90418
C         13.56024       -8.82093       -1.11500
C         13.82794       -7.32856       -1.17086
C         12.92471       -6.31230       -1.35992
C         12.64664       -9.17873        0.06059
C         12.96664       -9.33004       -2.43142
C         15.53093      -10.59840       -0.76536
C         16.91064      -10.52389       -0.59630
S         17.48632       -8.86953       -0.60700
C         17.81507      -11.60118       -0.44245
C         17.42139      -12.95700       -0.43503
N         16.17071      -13.39795       -0.53144
S         16.07923      -15.00086       -0.47320
N         17.75396      -15.20610       -0.32474
C         18.40181      -14.00394       -0.30250
C         19.20823      -11.36115       -0.29013
N         19.61186      -10.08448       -0.28092
C         20.88748       -9.79377       -0.16230
C         21.26858       -8.35080       -0.15419
C         21.83725      -10.83228       -0.05351
C         23.30153      -10.55585        0.06015
N         21.46297      -12.09524       -0.04577
C         20.16567      -12.40604       -0.15230
C         19.76116      -13.78241       -0.15847
C         20.72756      -14.84137       -0.03337
C         21.97045      -14.79159        0.56076
C         22.65541      -16.00482        0.48742
C         21.95129      -16.99545       -0.16807
S         20.42059      -16.44042       -0.71704
C         22.67807      -18.22101       -0.19996
C         23.90051      -17.98558        0.47370
C         23.98130      -16.54525        0.95501
C         25.14362      -15.80428        0.28810
C         24.10225      -16.47414        2.47955
C         24.82108      -18.99370        0.62466
C         24.50407      -20.24460        0.09149
C         25.22231      -21.47602        0.09210
C         24.49330      -22.46031       -0.56732
C         23.18843      -21.90708       -1.07110
C         23.28209      -20.47121       -0.58976
C         22.36086      -19.46487       -0.74085
C         21.99700      -22.63170       -0.43900
C         23.11020      -21.97566       -2.59893
C         25.13069      -23.68706       -0.59409
C         26.36291      -23.65528        0.05263
S         26.72687      -22.06755        0.69712
C         27.27025      -24.72744        0.22486
C         27.04307      -26.03191       -0.26489
N         25.98067      -26.41894       -0.96447
S         26.05201      -27.96909       -1.38100
N         27.54288      -28.22454       -0.61783
C         28.00794      -27.07795       -0.04006
C         28.49224      -24.53450        0.92559
N         28.73933      -23.30621        1.39780
C         29.84023      -23.06400        2.07245
C         30.05569      -21.67191        2.56546
C         30.76100      -24.10676        2.31004
C         32.01379      -23.89213        3.09614
N         30.54805      -25.31897        1.84029
C         29.43900      -25.57645        1.13730
C         29.20391      -26.90027        0.63531
C         30.16563      -27.95051        0.83969
C         31.52143      -27.82264        1.05478
C         32.16155      -29.04934        1.22600
C         31.30866      -30.13321        1.15014
S         29.68254      -29.64894        0.87210
C         32.01245      -31.36353        1.30458
C         33.37647      -31.02902        1.48563
C         33.57147      -29.52188        1.46000
C         34.49492      -29.10037        0.31388
C         34.10836      -29.00994        2.79957
C         34.32303      -32.01066        1.64387
C         33.88884      -33.33701        1.61653
C         34.61112      -34.56011        1.72449
C         33.74447      -35.64448        1.62604
C         32.32565      -35.17304        1.45176
C         32.52190      -33.66761        1.44363
C         31.57407      -32.68628        1.28771
C         31.44932      -35.60988        2.62939
C         31.73349      -35.66717        0.12933
C         34.39019      -36.86481        1.70274
C         35.76696      -36.72410        1.86050
S         36.25521      -35.04239        1.92058
C         36.73369      -37.75242        1.95860
C         36.42231      -39.13071        1.89720
N         35.21158      -39.65401        1.74764
S         35.23382      -41.26377        1.71562
N         36.92477      -41.36092        1.90936
C         37.47733      -40.11143        1.99674
C         38.11031      -37.42522        2.12062
N         38.44303      -36.13040        2.18128
C         39.70317      -35.78488        2.32914
C         40.01093      -34.32549        2.39187
C         40.70730      -36.77586        2.42447
C         42.14793      -36.41770        2.59242
N         40.40904      -38.05789        2.36740
C         39.12606      -38.41862        2.21640
C         38.79227      -39.78968        2.15152
H          2.22116       12.77259       -3.02582
H          4.54874       12.85981       -1.83601
H          5.26550        9.72525        0.18537
H          6.17818       11.23130        0.02823
H          7.02681        9.67983        0.05661
H          7.14262       10.68396       -3.56037
H          8.14286       10.25072       -2.17015
H          7.29339       11.80175       -2.19887
H          7.66239        7.71494       -1.59397
H          3.27506        7.13942       -3.94459
H          3.90426        5.16373       -5.59890
H          4.77374        3.62326       -5.56560
H          5.66677        5.14007       -5.72601
H          3.79403        4.17390       -1.98087
H          3.65691        3.04970       -3.33779
H          2.79282        4.59311       -3.37546
H          6.37848        2.01133       -3.71265
H          9.55961       -2.59626       -3.40308
H         11.03003        5.39708       -0.52048
H         12.78179        5.12158       -0.62975
H         11.93102        4.76406        0.87196
H         13.53201        2.85938        1.28969
H         14.39365        3.16961       -0.21572
H         14.23792        1.50690        0.38572
H         13.59081       -0.51980       -1.70517
H         15.57952       -3.26635       -3.37648
H         16.96791       -3.32523       -2.28602
H         16.09394       -1.80553       -2.52389
H         14.96324       -2.96026        0.86680
H         15.73562       -1.62827       -0.00111
H         16.60190       -3.15323        0.23474
H         16.75620       -5.56531       -0.88739
H         11.86873       -6.49749       -1.49116
H         13.07096       -8.80945        0.99171
H         12.53733      -10.25832        0.13171
H         11.66358       -8.73368       -0.07444
H         13.61571       -9.06501       -3.26327
H         11.98659       -8.89000       -2.60046
H         12.86533      -10.41227       -2.40001
H         15.01402      -11.53882       -0.78278
H         18.19684      -16.09239       -0.14697
H         20.36964       -7.74709       -0.23550
H         21.93064       -8.12843       -0.99005
H         21.79311       -8.10080        0.76696
H         23.64460       -9.96660       -0.78875
H         23.84481      -11.49606        0.08609
H         23.51289       -9.99218        0.96821
H         22.33535      -13.89823        1.02941
H         25.05223      -15.85800       -0.79460
H         26.09141      -16.25044        0.57944
H         25.13968      -14.75843        0.58647
H         23.27844      -17.00836        2.94823
H         24.07811      -15.43781        2.80875
H         25.03699      -16.92447        2.80441
H         25.75953      -18.84451        1.13698
H         21.42215      -19.61533       -1.25349
H         22.05418      -22.57288        0.64578
H         22.00069      -23.67903       -0.73151
H         21.06272      -22.17948       -0.76358
H         23.95613      -21.45446       -3.04186
H         22.19211      -21.51207       -2.95238
H         23.12964      -23.01242       -2.92648
H         24.75363      -24.58414       -1.04693
H         28.07402      -29.07595       -0.69675
H         29.22364      -21.05110        2.24699
H         30.98535      -21.26701        2.16809
H         30.12044      -21.66020        3.65271
H         31.77977      -23.50812        4.08772
H         32.65617      -23.16698        2.59769
H         32.54419      -24.83499        3.19356
H         32.00134      -26.86345        1.07208
H         34.11352      -29.47406       -0.63407
H         35.49362      -29.50140        0.46813
H         34.55561      -28.01570        0.26217
H         33.44878      -29.31298        3.60987
H         34.16818      -27.92409        2.78684
H         35.09946      -29.41545        2.98796
H         35.36998      -31.78541        1.77946
H         30.52695      -32.91358        1.15138
H         31.87338      -35.25340        3.56561
H         31.38807      -36.69500        2.66565
H         30.44569      -35.20410        2.52534
H         32.35516      -35.34644       -0.70379
H         30.73148      -35.26801       -0.00985
H         31.68215      -36.75338        0.12747
H         33.92556      -37.83116        1.64808
H         37.44327      -42.21945        1.94199
H         39.08723      -33.76483        2.28555
H         40.69891      -34.04650        1.59535
H         40.47834      -34.07574        3.34325
H         42.49237      -35.82213        1.74793
H         42.73779      -37.32772        2.65498
H         42.29122      -35.83128        3.49887
H         39.57010      -40.53118        2.22376
