186
d9a6.out	Energy:  -10504.1375829
C         -5.35732       -4.43542        1.92035
C         -4.80340       -3.20140        1.75104
C         -3.40503       -3.27524        1.64325
C         -2.93014       -4.56515        1.73336
S         -4.19311       -5.71203        1.95232
C         -1.50188       -4.59608        1.61884
C         -1.07697       -3.25899        1.45004
C         -2.26507       -2.31039        1.45257
C         -2.17980       -1.31694        2.61486
C         -2.38515       -1.56800        0.11853
C          0.25853       -2.95894        1.31023
C          1.16272       -4.01912        1.34188
C          2.58856       -4.05309        1.22797
C          3.05668       -5.35604        1.31931
C          1.91117       -6.31248        1.50907
C          0.73285       -5.35593        1.51075
C         -0.60194       -5.65579        1.65068
C          1.81862       -7.30391        0.34580
C          2.02452       -7.05489        2.84348
C          4.43684       -5.45338        1.21539
C          5.03355       -4.21209        1.04270
S          3.85858       -2.91089        1.00980
C          6.40523       -3.93431        0.90232
C          7.03786       -2.70418        0.72937
N          6.60311       -1.44813        0.64171
S          7.88690       -0.49506        0.44263
N          9.05287       -1.60764        0.45612
C          8.47793       -2.79771        0.62025
C          8.96742       -4.10061        0.70791
S          7.61959       -5.19121        0.92588
C         10.30042       -4.54264        0.64179
C         10.77552       -5.84541        0.72930
C         12.15764       -5.90254        0.62211
C         12.74506       -4.65570        0.45353
S         11.59211       -3.37783        0.42350
C         14.16271       -4.77286        0.35077
C         14.47551       -6.14967        0.45870
C         13.21341       -6.97645        0.64069
C         13.22487       -7.71799        1.98047
C         13.02247       -7.96056       -0.51686
C         15.77861       -6.58184        0.39687
C         16.77127       -5.61631        0.22638
C         18.19145       -5.72629        0.12899
C         18.77189       -4.47457       -0.03301
C         17.71261       -3.40632       -0.05596
C         16.45579       -4.23965        0.11931
C         15.15363       -3.80732        0.17957
C         17.70314       -2.66381       -1.39511
C         17.89209       -2.42377        1.10472
C         20.15435       -4.51756       -0.12820
C         20.64233       -5.81531       -0.03872
S         19.35848       -6.99279        0.16475
C         21.98334       -6.23316       -0.08834
C         22.49923       -7.52614       -0.00178
N         21.94843       -8.73008        0.14085
S         23.13877       -9.81661        0.16905
N         24.40453       -8.83203        0.00443
C         23.94234       -7.58625       -0.08195
C         24.55296       -6.34093       -0.23065
S         23.31200       -5.11063       -0.27147
C         25.92439       -6.04911       -0.32924
C         26.53046       -4.80685       -0.47310
C         27.91310       -4.90675       -0.52821
C         28.37201       -6.21389       -0.42842
S         27.09342       -7.35451       -0.26452
C         29.79656       -6.25728       -0.48448
C         30.24725       -4.92216       -0.62480
C         29.07408       -3.95754       -0.66693
C         29.02155       -3.20895       -2.00189
C         29.12569       -2.96942        0.50168
C         31.58911       -4.63750       -0.70287
C         32.47994       -5.70903       -0.63877
C         33.90537       -5.75457       -0.68706
C         34.36130       -7.06290       -0.58529
C         33.19874       -8.01080       -0.45755
C         32.02818       -7.04403       -0.50030
C         30.68671       -7.32888       -0.42213
C         33.24327       -8.76817        0.87253
C         33.14960       -8.99041       -1.63353
C         35.74386       -7.16627       -0.62529
C         36.35471       -5.92535       -0.75859
S         35.18908       -4.61720       -0.83520
C         37.72872       -5.63873       -0.83297
C         38.34738       -4.39552       -0.96573
N         37.89332       -3.14733       -1.06010
S         39.16688       -2.16854       -1.19328
N         40.35126       -3.26035       -1.13904
C         39.79142       -4.46210       -1.01207
C         40.30000       -5.75689       -0.91544
S         38.96342       -6.87439       -0.76726
C         41.64327       -6.17168       -0.92949
C         42.13885       -7.46556       -0.83191
C         43.52469       -7.49592       -0.88522
C         44.09730       -6.23821       -1.02261
S         42.92165       -4.98191       -1.08843
C         45.52131       -6.33265       -1.07504
C         45.84681       -7.70628       -0.96579
C         44.59411       -8.55347       -0.83387
C         44.57184       -9.30157        0.50212
C         44.46346       -9.53369       -2.00294
C         47.15499       -8.12432       -0.98718
C         48.13861       -7.14651       -1.11995
C         49.56096       -7.24912       -1.17762
C         50.14068       -5.99656       -1.31663
C         49.07614       -4.93219       -1.36072
C         47.81676       -5.77266       -1.22803
C         46.50725       -5.35486       -1.20648
C         49.10294       -4.17762       -2.69291
C         49.21931       -3.95769       -0.18817
C         51.52769       -6.04255       -1.37962
C         52.00725       -7.34040       -1.28829
S         50.72110       -8.51700       -1.12153
C         53.34859       -7.77670       -1.31628
C         53.83375       -9.07897       -1.22792
N         53.25792      -10.27256       -1.09647
S         54.42747      -11.37698       -1.05977
N         55.71586      -10.42903       -1.20534
C         55.28457       -9.16164       -1.29303
C         55.88415       -7.93515       -1.42870
S         54.69796       -6.69187       -1.47699
H         -6.39433       -4.68447        2.03076
H         -5.38123       -2.29565        1.70789
H         -2.09307       -1.84969        3.55934
H         -3.07387       -0.69823        2.64454
H         -1.31187       -0.67285        2.49774
H         -2.44364       -2.27841       -0.70323
H         -1.52034       -0.92763       -0.03605
H         -3.28224       -0.95298        0.11206
H          0.60945       -1.94628        1.18010
H         -0.95269       -6.66862        1.78079
H          0.94995       -7.94639        0.46634
H          2.71141       -7.92380        0.31036
H          1.72746       -6.76898       -0.59696
H          2.07890       -6.34405        3.66507
H          2.92108       -7.67022        2.85451
H          1.15825       -7.69434        2.99381
H          5.01092       -6.36183        1.25868
H         10.11628       -6.68446        0.86448
H         13.36219       -7.01449        2.79863
H         14.03626       -8.44110        2.00369
H         12.28330       -8.24242        2.12576
H         13.01662       -7.42876       -1.46570
H         12.07796       -8.48834       -0.40704
H         13.83080       -8.68734       -0.53044
H         16.04267       -7.62563        0.47657
H         14.88902       -2.76378        0.10043
H         17.57018       -3.36756       -2.21384
H         18.64358       -2.13663       -1.53733
H         16.88948       -1.94333       -1.42036
H         17.89089       -2.95785        2.05236
H         17.08209       -1.69882        1.11315
H         18.83647       -1.89407        1.00394
H         20.80568       -3.67118       -0.25542
H         25.95925       -3.89726       -0.52993
H         28.98899       -3.91548       -2.82829
H         29.90159       -2.58093       -2.11590
H         28.13457       -2.58117       -2.04434
H         29.16819       -3.50635        1.44669
H         28.23954       -2.33904        0.49807
H         30.00623       -2.33696        0.42119
H         31.95849       -3.62868       -0.80913
H         30.31709       -8.33753       -0.31553
H         33.27744       -8.06707        1.70345
H         34.12647       -9.40128        0.91355
H         32.35935       -9.39179        0.98009
H         33.11678       -8.44638       -2.57487
H         32.26457       -9.61779       -1.56364
H         34.03182       -9.62620       -1.62847
H         36.31169       -8.07762       -0.56334
H         41.49169       -8.31835       -0.72865
H         44.67368       -8.60014        1.32727
H         45.39205      -10.01360        0.54806
H         43.63342       -9.83930        0.61477
H         44.48913       -8.99644       -2.94841
H         43.52291      -10.07514       -1.93445
H         45.28199      -10.24893       -1.98732
H         47.42922       -9.16522       -0.90625
H         46.23404       -4.31362       -1.28768
H         49.00169       -4.87431       -3.52204
H         50.04332       -3.64203       -2.80028
H         48.28527       -3.46266       -2.73743
H         49.20026       -4.49877        0.75521
H         48.40347       -3.23928       -0.19371
H         50.16128       -3.41929       -0.26245
H         52.18378       -5.19702       -1.48642
H         56.92264       -7.68999       -1.50157
