202
d9a7.out	Energy:  -11246.6839811
C          2.32106       11.82072        1.28621
C          1.74129       10.59372        1.15594
C          2.70491        9.57710        1.05982
C          3.99581       10.05661        1.11604
S          4.04806       11.76770        1.28630
C          4.94594        8.98777        1.02053
C          4.20078        7.79236        0.90059
C          2.70875        8.07981        0.90737
C          2.06058        7.65645       -0.41443
C          2.01636        7.39557        2.08917
C          4.83499        6.57702        0.79846
C          6.22855        6.57667        0.81712
C          7.16862        5.50410        0.74179
C          8.46996        5.98885        0.80061
C          8.46443        7.48977        0.91838
C          6.97284        7.77443        0.92965
C          6.33730        8.99000        1.03273
C          9.12961        7.94858        2.21872
C          9.14167        8.14144       -0.29096
C          9.42692        4.98892        0.73763
C          8.85749        3.72495        0.62984
S          7.10582        3.79323        0.60729
C          9.52619        2.47807        0.54097
C         10.93156        2.33288        0.54951
N         11.83227        3.31371        0.64925
S         13.31096        2.68630        0.61477
N         12.90217        1.14055        0.47103
C         11.57317        1.03749        0.44360
C          8.82296        1.25903        0.43148
N          7.49378        1.15524        0.41014
S          7.08465       -0.39060        0.27425
N          8.56371       -1.01784        0.23322
C          9.46439       -0.03654        0.32611
C         10.87000       -0.18066        0.32423
C         11.53906       -1.42456        0.20742
C         10.96777       -2.68718        0.08235
C         11.92254       -3.68417       -0.01856
C         13.22681       -3.20046        0.02746
S         13.29013       -1.49121        0.19986
C         14.16287       -4.26848       -0.08252
C         13.41649       -5.46817       -0.19934
C         11.92527       -5.18152       -0.17248
C         11.24784       -5.86448        1.01864
C         11.25742       -5.60242       -1.48497
C         14.04887       -6.68075       -0.31799
C         15.44460       -6.68231       -0.32133
C         16.38056       -7.75099       -0.42417
C         17.68528       -7.26631       -0.38492
C         17.68204       -5.76720       -0.24908
C         16.19087       -5.48203       -0.21051
C         15.55844       -4.26962       -0.08933
C         18.34076       -5.10156       -1.46097
C         18.36786       -5.32480        1.04633
C         18.63989       -8.26321       -0.48032
C         18.06887       -9.52780       -0.59355
S         16.31727       -9.46155       -0.57927
C         18.73782      -10.77018       -0.71411
C         20.14408      -10.91195       -0.74186
N         21.04444       -9.93052       -0.65311
S         22.52400      -10.55399       -0.73192
N         22.11398      -12.09920       -0.88353
C         20.78516      -12.20435       -0.87907
C         18.03436      -11.98994       -0.82250
N         16.70573      -12.09562       -0.81365
S         16.29566      -13.64127       -0.95898
N         17.77522      -14.26441       -1.04243
C         18.67559      -13.28234       -0.95891
C         20.08155      -13.42296       -0.99545
C         20.75019      -14.66330       -1.14094
C         20.17794      -15.92567       -1.26793
C         21.13136      -16.91966       -1.39966
C         22.43644      -16.43507       -1.37529
S         22.50106      -14.72750       -1.18601
C         23.37063      -17.50104       -1.51686
C         22.62152      -18.69932       -1.63317
C         21.13153      -18.41507       -1.56890
C         20.48482      -19.11106       -0.36809
C         20.43340      -18.82544       -2.86871
C         23.25023      -19.91001       -1.78183
C         24.64527      -19.91098       -1.81424
C         25.57563      -20.97930       -1.95273
C         26.88255      -20.49940       -1.93202
C         26.88556      -19.00234       -1.77063
C         25.39563      -18.71362       -1.70094
C         24.76623      -17.50266       -1.55131
C         27.52665      -18.31711       -2.98090
C         27.59445      -18.58509       -0.47911
C         27.83024      -21.49906       -2.06336
C         27.25030      -22.75897       -2.18633
S         25.50007      -22.68574       -2.13524
C         27.90725      -24.00367       -2.34159
C         29.31124      -24.15634       -2.39834
N         30.22145      -23.18406       -2.30877
S         31.69355      -23.81824       -2.42679
N         31.26769      -25.35679       -2.59827
C         29.93808      -25.45137       -2.57074
C         27.19118      -25.21532       -2.45860
N         25.86201      -25.31031       -2.42722
S         25.43610      -26.84941       -2.59309
N         26.90805      -27.48319       -2.71506
C         27.81839      -26.51016       -2.63011
C         29.22163      -26.66135       -2.69556
C         29.87712      -27.90449       -2.87722
C         29.29449      -29.16062       -3.01444
C         30.23963      -30.15749       -3.18634
C         31.54599      -29.67828       -3.18262
S         31.62556      -27.97610       -2.96266
C         32.47305      -30.74384       -3.36893
C         31.71838      -31.93708       -3.49270
C         30.23101      -31.64987       -3.38446
C         29.61339      -32.36728       -2.18083
C         29.49776      -32.03370       -4.67293
C         32.34209      -33.14500       -3.68525
C         33.73543      -33.14532       -3.75491
C         34.66343      -34.21066       -3.94472
C         35.96910      -33.72917       -3.94860
C         35.97693      -32.23717       -3.74936
C         34.48980      -31.95221       -3.63325
C         33.86629      -30.74435       -3.43879
C         36.58483      -31.52072       -4.95856
C         36.71904      -31.85118       -2.46669
C         36.91405      -34.72470       -4.13061
C         36.33217      -35.98023       -4.26662
S         34.58440      -35.91111       -4.16606
C         36.98726      -37.22372       -4.46479
C         38.38901      -37.36944       -4.55943
N         39.29846      -36.39433       -4.48161
S         40.76484      -37.02863       -4.64366
N         40.35303      -38.56400       -4.82106
C         39.01673      -38.66751       -4.76218
C         36.26762      -38.43047       -4.58364
N         34.93941      -38.54341       -4.52673
S         34.53794      -40.08746       -4.70634
N         36.00531      -40.70653       -4.86553
C         36.90902      -39.71721       -4.78521
C         38.28787      -39.84420       -4.87584
H          1.83700       12.77276        1.38031
H          0.67701       10.44202        1.13318
H          2.55568        8.14652       -1.25001
H          1.00866        7.93286       -0.42166
H          2.14110        6.58025       -0.54551
H          2.48177        7.69810        3.02474
H          2.09302        6.31511        1.99617
H          0.96455        7.67090        2.11767
H          4.29132        5.64875        0.70896
H          6.88235        9.91778        1.12240
H          9.06200        9.02939        2.31646
H         10.17807        7.66045        2.22241
H          8.63882        7.49034        3.07454
H          8.66051        7.81754       -1.21123
H         10.19090        7.85847       -0.32785
H          9.07172        9.22448       -0.22464
H         10.49165        5.12616        0.76559
H          9.90262       -2.82348        0.06962
H         11.72856       -5.56538        1.94746
H         11.31760       -6.94524        0.92315
H         10.19868       -5.58231        1.06244
H         11.74356       -5.11528       -2.32739
H         10.20770       -5.31892       -1.47680
H         11.33013       -6.67914       -1.61670
H         13.50468       -7.60883       -0.40649
H         16.10262       -3.34150       -0.00139
H         17.84538       -5.41438       -2.37753
H         19.38915       -5.38437       -1.51734
H         18.27198       -4.01953       -1.38046
H         17.89126       -5.79444        1.90398
H         18.30091       -4.24550        1.15890
H         19.41636       -5.61225        1.02931
H         19.70506       -8.12655       -0.47244
H         19.11294      -16.06341       -1.25974
H         20.98865      -18.82102        0.55131
H         20.55325      -20.19070       -0.47645
H         19.43689      -18.83059       -0.29495
H         20.89965      -18.33153       -3.71840
H         19.38424      -18.54226       -2.83348
H         20.50294      -19.90110       -3.01068
H         22.70454      -20.83701       -1.87172
H         25.31244      -16.57591       -1.46141
H         27.01754      -18.61402       -3.89518
H         28.57391      -18.59943       -3.05761
H         27.46012      -17.23658       -2.88107
H         27.13297      -19.07113        0.37764
H         27.52953      -17.50821       -0.34472
H         28.64253      -18.87181       -0.51991
H         28.89614      -21.36807       -2.07490
H         28.22914      -29.29265       -2.98482
H         30.14094      -32.09565       -1.26916
H         29.67608      -33.44492       -2.31107
H         28.56836      -32.08597       -2.07592
H         29.94341      -31.52565       -5.52531
H         28.45094      -31.74772       -4.60489
H         29.55925      -33.10681       -4.83654
H         31.79311      -34.06940       -3.78189
H         34.41534      -29.82000       -3.34252
H         36.05406      -31.79813       -5.86665
H         37.63104      -31.79591       -5.06817
H         36.51602      -30.44328       -4.83103
H         36.28323      -32.36285       -1.61144
H         36.65285      -30.77870       -2.30104
H         37.76691      -32.13108       -2.54361
H         37.97915      -34.59154       -4.16744
H         38.76591      -40.79578       -5.02539
